<?xml version="1.0" encoding="UTF-8"?>

<!-- generated on Sat Nov 12 19:02:05 2016 by SUMO netconvert Version 0.25.0
<?xml version="1.0" encoding="UTF-8"?>

<configuration xmlns:xsi="http://www.w3.org/2001/XMLSchema-instance" xsi:noNamespaceSchemaLocation="http://sumo.dlr.de/xsd/netconvertConfiguration.xsd">

    <input>
        <osm-files value="map.osm"/>
    </input>

    <output>
        <output-file value="net.net.xml"/>
    </output>

    <projection>
        <proj.utm value="true"/>
    </projection>

</configuration>
-->

<net version="0.25" xmlns:xsi="http://www.w3.org/2001/XMLSchema-instance" xsi:noNamespaceSchemaLocation="http://sumo.dlr.de/xsd/net_file.xsd">

    <location netOffset="-531469.12,-3841994.83" convBoundary="0.00,0.00,4330.24,2208.44" origBoundary="-86.656281,34.719484,-86.608970,34.739364" projParameter="+proj=utm +zone=16 +ellps=WGS84 +datum=WGS84 +units=m +no_defs"/>

    <type id="highway.bridleway" priority="1" numLanes="1" speed="2.78" allow="pedestrian" oneway="1" width="2.00"/>
    <type id="highway.bus_guideway" priority="1" numLanes="1" speed="8.33" allow="bus" oneway="1"/>
    <type id="highway.cycleway" priority="1" numLanes="1" speed="5.56" allow="bicycle" oneway="0" width="1.00"/>
    <type id="highway.footway" priority="1" numLanes="1" speed="8.33" allow="pedestrian" oneway="1" width="2.00"/>
    <type id="highway.ford" priority="1" numLanes="1" speed="2.78" allow="army" oneway="0"/>
    <type id="highway.living_street" priority="3" numLanes="1" speed="2.78" disallow="tram rail_urban rail rail_electric ship" oneway="0"/>
    <type id="highway.motorway" priority="13" numLanes="2" speed="44.44" allow="private emergency authority army vip passenger hov taxi bus coach delivery truck trailer motorcycle evehicle custom1 custom2" oneway="1"/>
    <type id="highway.motorway_link" priority="12" numLanes="1" speed="22.22" allow="private emergency authority army vip passenger hov taxi bus coach delivery truck trailer motorcycle evehicle custom1 custom2" oneway="1"/>
    <type id="highway.path" priority="1" numLanes="1" speed="2.78" allow="bicycle pedestrian" oneway="1" width="2.00"/>
    <type id="highway.pedestrian" priority="1" numLanes="1" speed="8.33" allow="pedestrian" oneway="1" width="2.00"/>
    <type id="highway.primary" priority="9" numLanes="2" speed="27.78" disallow="tram rail_urban rail rail_electric ship" oneway="0"/>
    <type id="highway.primary_link" priority="8" numLanes="1" speed="22.22" disallow="tram rail_urban rail rail_electric ship" oneway="0"/>
    <type id="highway.raceway" priority="14" numLanes="2" speed="83.33" allow="vip" oneway="0"/>
    <type id="highway.residential" priority="4" numLanes="1" speed="13.89" disallow="tram rail_urban rail rail_electric ship" oneway="0"/>
    <type id="highway.secondary" priority="7" numLanes="2" speed="27.78" disallow="tram rail_urban rail rail_electric ship" oneway="0"/>
    <type id="highway.secondary_link" priority="6" numLanes="1" speed="22.22" disallow="tram rail_urban rail rail_electric ship" oneway="0"/>
    <type id="highway.service" priority="2" numLanes="1" speed="5.56" allow="delivery bicycle pedestrian" oneway="0"/>
    <type id="highway.services" priority="1" numLanes="1" speed="8.33" disallow="tram rail_urban rail rail_electric ship" oneway="0"/>
    <type id="highway.stairs" priority="1" numLanes="1" speed="1.39" allow="pedestrian" oneway="1" width="2.00"/>
    <type id="highway.step" priority="1" numLanes="1" speed="1.39" allow="pedestrian" oneway="1" width="2.00"/>
    <type id="highway.steps" priority="1" numLanes="1" speed="1.39" allow="pedestrian" oneway="1" width="2.00"/>
    <type id="highway.tertiary" priority="6" numLanes="1" speed="22.22" disallow="tram rail_urban rail rail_electric ship" oneway="0"/>
    <type id="highway.tertiary_link" priority="5" numLanes="1" speed="22.22" disallow="tram rail_urban rail rail_electric ship" oneway="0"/>
    <type id="highway.track" priority="1" numLanes="1" speed="5.56" disallow="tram rail_urban rail rail_electric ship" oneway="0"/>
    <type id="highway.trunk" priority="11" numLanes="2" speed="27.78" disallow="tram rail_urban rail rail_electric bicycle pedestrian ship" oneway="0"/>
    <type id="highway.trunk_link" priority="10" numLanes="1" speed="22.22" disallow="tram rail_urban rail rail_electric bicycle pedestrian ship" oneway="0"/>
    <type id="highway.unclassified" priority="5" numLanes="1" speed="13.89" disallow="tram rail_urban rail rail_electric ship" oneway="0"/>
    <type id="highway.unsurfaced" priority="1" numLanes="1" speed="8.33" disallow="tram rail_urban rail rail_electric ship" oneway="0"/>
    <type id="railway.light_rail" priority="15" numLanes="1" speed="27.78" allow="rail_urban" oneway="1"/>
    <type id="railway.preserved" priority="15" numLanes="1" speed="27.78" allow="rail" oneway="1"/>
    <type id="railway.rail" priority="15" numLanes="1" speed="83.33" allow="rail rail_electric" oneway="1"/>
    <type id="railway.subway" priority="15" numLanes="1" speed="27.78" allow="rail_urban" oneway="1"/>
    <type id="railway.tram" priority="15" numLanes="1" speed="13.89" allow="tram" oneway="1"/>

    <edge id=":1993693549_0" function="internal">
        <lane id=":1993693549_0_0" index="0" allow="delivery bicycle pedestrian" speed="5.56" length="5.07" shape="1689.00,629.20 1694.07,629.20"/>
    </edge>
    <edge id=":1994431918_0" function="internal">
        <lane id=":1994431918_0_0" index="0" allow="delivery bicycle pedestrian" speed="5.56" length="5.03" shape="1694.07,634.36 1689.04,634.44"/>
    </edge>
    <edge id=":1994431927_0" function="internal">
        <lane id=":1994431927_0_0" index="0" allow="delivery bicycle pedestrian" speed="5.56" length="5.68" shape="1691.92,780.08 1686.24,780.18"/>
    </edge>
    <edge id=":1994431927_1" function="internal">
        <lane id=":1994431927_1_0" index="0" allow="delivery bicycle pedestrian" speed="5.56" length="2.41" shape="1691.92,780.08 1690.67,779.27 1690.24,778.46"/>
    </edge>
    <edge id=":1994431927_4" function="internal">
        <lane id=":1994431927_4_0" index="0" speed="5.56" length="2.41" shape="1690.24,778.46 1690.64,777.62 1691.86,776.78"/>
    </edge>
    <edge id=":1994431927_2" function="internal">
        <lane id=":1994431927_2_0" index="0" allow="delivery bicycle pedestrian" speed="5.56" length="5.69" shape="1686.17,776.88 1691.86,776.78"/>
    </edge>
    <edge id=":1994431927_3" function="internal">
        <lane id=":1994431927_3_0" index="0" allow="delivery bicycle pedestrian" speed="5.56" length="2.41" shape="1686.17,776.88 1687.42,777.68 1687.85,778.50"/>
    </edge>
    <edge id=":1994431927_5" function="internal">
        <lane id=":1994431927_5_0" index="0" speed="5.56" length="2.41" shape="1687.85,778.50 1687.46,779.33 1686.24,780.18"/>
    </edge>
    <edge id=":1994431929_0" function="internal">
        <lane id=":1994431929_0_0" index="0" disallow="tram rail_urban rail rail_electric ship" speed="13.89" length="5.18" shape="1678.21,921.64 1678.15,916.46"/>
    </edge>
    <edge id=":1994431929_1" function="internal">
        <lane id=":1994431929_1_0" index="0" disallow="tram rail_urban rail rail_electric ship" speed="13.89" length="2.51" shape="1678.21,921.64 1678.98,920.37 1679.79,919.93 1679.89,919.97"/>
    </edge>
    <edge id=":1994431929_4" function="internal">
        <lane id=":1994431929_4_0" index="0" speed="13.89" length="2.31" shape="1679.89,919.97 1680.63,920.31 1681.50,921.52"/>
    </edge>
    <edge id=":1994431929_2" function="internal">
        <lane id=":1994431929_2_0" index="0" disallow="tram rail_urban rail rail_electric ship" speed="13.89" length="5.13" shape="1681.45,916.39 1681.50,921.52"/>
    </edge>
    <edge id=":1994431929_3" function="internal">
        <lane id=":1994431929_3_0" index="0" disallow="tram rail_urban rail rail_electric ship" speed="13.89" length="2.41" shape="1681.45,916.39 1680.65,917.65 1679.83,918.08"/>
    </edge>
    <edge id=":1994431929_5" function="internal">
        <lane id=":1994431929_5_0" index="0" speed="13.89" length="2.41" shape="1679.83,918.08 1679.00,917.68 1678.15,916.46"/>
    </edge>
    <edge id=":2039334032_0" function="internal">
        <lane id=":2039334032_0_0" index="0" disallow="tram rail_urban rail rail_electric ship" speed="13.89" length="2.59" shape="2416.92,885.81 2416.90,888.41"/>
    </edge>
    <edge id=":2039334032_1" function="internal">
        <lane id=":2039334032_1_0" index="0" disallow="tram rail_urban rail rail_electric ship" speed="13.89" length="2.41" shape="2416.92,885.81 2416.08,887.05 2415.26,887.45"/>
    </edge>
    <edge id=":2039334032_4" function="internal">
        <lane id=":2039334032_4_0" index="0" speed="13.89" length="2.41" shape="2415.26,887.45 2414.43,887.03 2413.62,885.79"/>
    </edge>
    <edge id=":2039334032_2" function="internal">
        <lane id=":2039334032_2_0" index="0" disallow="tram rail_urban rail rail_electric ship" speed="13.89" length="4.86" shape="2413.56,890.65 2413.62,885.79"/>
    </edge>
    <edge id=":2039334032_3" function="internal">
        <lane id=":2039334032_3_0" index="0" disallow="tram rail_urban rail rail_electric ship" speed="13.89" length="4.06" shape="2413.56,890.65 2413.56,888.84 2414.11,887.86 2415.22,887.72"/>
    </edge>
    <edge id=":2039334032_5" function="internal">
        <lane id=":2039334032_5_0" index="0" speed="13.89" length="1.81" shape="2415.22,887.72 2416.90,888.41"/>
    </edge>
    <edge id=":2039334033_0" function="internal">
        <lane id=":2039334033_0_0" index="0" disallow="tram rail_urban rail rail_electric ship" speed="13.89" length="4.95" shape="2237.85,891.25 2237.80,886.30"/>
    </edge>
    <edge id=":2039334033_1" function="internal">
        <lane id=":2039334033_1_0" index="0" disallow="tram rail_urban rail rail_electric ship" speed="13.89" length="4.26" shape="2237.85,891.25 2237.76,889.41 2238.28,888.40 2239.41,888.20 2239.53,888.24"/>
    </edge>
    <edge id=":2039334033_4" function="internal">
        <lane id=":2039334033_4_0" index="0" speed="13.89" length="1.71" shape="2239.53,888.24 2241.14,888.83"/>
    </edge>
    <edge id=":2039334033_2" function="internal">
        <lane id=":2039334033_2_0" index="0" disallow="tram rail_urban rail rail_electric ship" speed="13.89" length="2.58" shape="2241.10,886.25 2241.14,888.83"/>
    </edge>
    <edge id=":2039334033_3" function="internal">
        <lane id=":2039334033_3_0" index="0" disallow="tram rail_urban rail rail_electric ship" speed="13.89" length="2.41" shape="2241.10,886.25 2240.29,887.50 2239.48,887.92"/>
    </edge>
    <edge id=":2039334033_5" function="internal">
        <lane id=":2039334033_5_0" index="0" speed="13.89" length="2.41" shape="2239.48,887.92 2238.64,887.52 2237.80,886.30"/>
    </edge>
    <edge id=":2047454361_0" function="internal">
        <lane id=":2047454361_0_0" index="0" allow="delivery bicycle pedestrian" speed="5.56" length="5.01" shape="1823.08,653.89 1822.88,652.53 1822.30,651.56 1821.32,650.99 1819.96,650.80"/>
    </edge>
    <edge id=":2047454361_1" function="internal">
        <lane id=":2047454361_1_0" index="0" allow="delivery bicycle pedestrian" speed="5.56" length="10.32" shape="1823.08,653.89 1823.47,651.08 1824.66,649.07 1826.65,647.85 1829.44,647.43"/>
    </edge>
    <edge id=":2047454361_2" function="internal">
        <lane id=":2047454361_2_0" index="0" allow="delivery bicycle pedestrian" speed="5.56" length="4.82" shape="1823.08,653.89 1823.90,652.65 1824.73,652.24 1825.55,652.65 1826.38,653.89"/>
    </edge>
    <edge id=":2047454361_3" function="internal">
        <lane id=":2047454361_3_0" index="0" allow="delivery bicycle pedestrian" speed="5.56" length="5.03" shape="1829.46,650.73 1828.11,650.93 1827.15,651.53 1826.57,652.51 1826.38,653.89"/>
    </edge>
    <edge id=":2047454361_4" function="internal">
        <lane id=":2047454361_4_0" index="0" allow="delivery bicycle pedestrian" speed="5.56" length="9.50" shape="1829.46,650.73 1819.96,650.80"/>
    </edge>
    <edge id=":2047454361_5" function="internal">
        <lane id=":2047454361_5_0" index="0" allow="delivery bicycle pedestrian" speed="5.56" length="4.82" shape="1829.46,650.73 1828.22,649.91 1827.80,649.09 1828.21,648.26 1829.44,647.43"/>
    </edge>
    <edge id=":2047454361_6" function="internal">
        <lane id=":2047454361_6_0" index="0" allow="delivery bicycle pedestrian" speed="5.56" length="9.50" shape="1819.94,647.50 1829.44,647.43"/>
    </edge>
    <edge id=":2047454361_7" function="internal">
        <lane id=":2047454361_7_0" index="0" allow="delivery bicycle pedestrian" speed="5.56" length="10.36" shape="1819.94,647.50 1822.75,647.88 1824.76,649.07 1825.97,651.07 1826.38,653.89"/>
    </edge>
    <edge id=":2047454361_8" function="internal">
        <lane id=":2047454361_8_0" index="0" allow="delivery bicycle pedestrian" speed="5.56" length="4.82" shape="1819.94,647.50 1821.18,648.32 1821.60,649.14 1821.19,649.97 1819.96,650.80"/>
    </edge>
    <edge id=":2047454371_0" function="internal">
        <lane id=":2047454371_0_0" index="0" allow="delivery bicycle pedestrian" speed="5.56" length="9.50" shape="1829.61,706.92 1820.12,707.12"/>
    </edge>
    <edge id=":2047454371_1" function="internal">
        <lane id=":2047454371_1_0" index="0" allow="delivery bicycle pedestrian" speed="5.56" length="10.42" shape="1829.61,706.92 1826.77,706.57 1824.74,705.40 1823.52,703.39 1823.11,700.56"/>
    </edge>
    <edge id=":2047454371_2" function="internal">
        <lane id=":2047454371_2_0" index="0" allow="delivery bicycle pedestrian" speed="5.56" length="4.82" shape="1829.61,706.92 1828.36,706.12 1827.93,705.31 1828.33,704.47 1829.55,703.62"/>
    </edge>
    <edge id=":2047454371_3" function="internal">
        <lane id=":2047454371_3_0" index="0" allow="delivery bicycle pedestrian" speed="5.56" length="5.02" shape="1826.41,700.56 1826.61,701.92 1827.20,702.89 1828.18,703.46 1829.55,703.62"/>
    </edge>
    <edge id=":2047454371_4" function="internal">
        <lane id=":2047454371_4_0" index="0" allow="delivery bicycle pedestrian" speed="5.56" length="10.33" shape="1826.41,700.56 1826.02,703.38 1824.84,705.41 1822.87,706.66 1820.12,707.12"/>
    </edge>
    <edge id=":2047454371_5" function="internal">
        <lane id=":2047454371_5_0" index="0" allow="delivery bicycle pedestrian" speed="5.56" length="4.82" shape="1826.41,700.56 1825.59,701.79 1824.76,702.21 1823.94,701.80 1823.11,700.56"/>
    </edge>
    <edge id=":2047454371_6" function="internal">
        <lane id=":2047454371_6_0" index="0" allow="delivery bicycle pedestrian" speed="5.56" length="5.08" shape="1820.05,703.82 1821.39,703.59 1822.35,702.97 1822.92,701.96 1823.11,700.56"/>
    </edge>
    <edge id=":2047454371_7" function="internal">
        <lane id=":2047454371_7_0" index="0" allow="delivery bicycle pedestrian" speed="5.56" length="9.50" shape="1820.05,703.82 1829.55,703.62"/>
    </edge>
    <edge id=":2047454371_8" function="internal">
        <lane id=":2047454371_8_0" index="0" allow="delivery bicycle pedestrian" speed="5.56" length="4.82" shape="1820.05,703.82 1821.30,704.62 1821.73,705.43 1821.34,706.27 1820.12,707.12"/>
    </edge>
    <edge id=":3396157040_0" function="internal">
        <lane id=":3396157040_0_0" index="0" disallow="tram rail_urban rail rail_electric ship" speed="20.84" length="9.16" shape="752.11,1807.76 751.54,1804.95 752.01,1802.65 753.52,1800.86 756.08,1799.57"/>
        <lane id=":3396157040_0_1" index="1" disallow="tram rail_urban rail rail_electric ship" speed="20.84" length="9.16" shape="752.11,1807.76 752.02,1806.31 752.83,1804.99 754.53,1803.78 757.13,1802.70"/>
    </edge>
    <edge id=":3396157040_2" function="internal">
        <lane id=":3396157040_2_0" index="0" disallow="tram rail_urban rail rail_electric ship" speed="13.89" length="4.82" shape="752.11,1807.76 752.47,1806.31 753.11,1805.65 754.02,1805.76 755.22,1806.65"/>
    </edge>
    <edge id=":3396157040_3" function="internal">
        <lane id=":3396157040_3_0" index="0" disallow="tram rail_urban rail rail_electric ship" speed="27.78" length="9.50" shape="746.02,1799.47 755.03,1796.44"/>
        <lane id=":3396157040_3_1" index="1" disallow="tram rail_urban rail rail_electric ship" speed="27.78" length="9.50" shape="747.07,1802.60 756.08,1799.57"/>
        <lane id=":3396157040_3_2" index="2" disallow="tram rail_urban rail rail_electric ship" speed="27.78" length="9.50" shape="748.12,1805.73 757.13,1802.70"/>
    </edge>
    <edge id=":3396157040_6" function="internal">
        <lane id=":3396157040_6_0" index="0" disallow="tram rail_urban rail rail_electric ship" speed="20.84" length="7.88" shape="748.12,1805.73 750.83,1805.02 752.92,1804.94 754.38,1805.48 755.22,1806.65"/>
    </edge>
    <edge id=":3396157041_0" function="internal">
        <lane id=":3396157041_0_0" index="0" disallow="tram rail_urban rail rail_electric ship" speed="20.84" length="5.14" shape="1311.79,1725.82 1310.46,1726.05 1309.50,1726.68 1308.89,1727.71 1308.64,1729.14"/>
    </edge>
    <edge id=":3396157041_1" function="internal">
        <lane id=":3396157041_1_0" index="0" disallow="tram rail_urban rail rail_electric ship" speed="27.78" length="9.51" shape="1311.79,1725.82 1302.28,1726.00"/>
        <lane id=":3396157041_1_1" index="1" disallow="tram rail_urban rail rail_electric ship" speed="27.78" length="9.51" shape="1311.72,1722.52 1302.21,1722.70"/>
        <lane id=":3396157041_1_2" index="2" disallow="tram rail_urban rail rail_electric ship" speed="27.78" length="9.51" shape="1311.66,1719.22 1302.15,1719.40"/>
    </edge>
    <edge id=":3396157041_4" function="internal">
        <lane id=":3396157041_4_0" index="0" disallow="tram rail_urban rail rail_electric ship" speed="27.78" length="2.41" shape="1311.66,1719.22 1310.41,1718.42 1309.98,1717.60"/>
    </edge>
    <edge id=":3396157041_14" function="internal">
        <lane id=":3396157041_14_0" index="0" speed="27.78" length="2.41" shape="1309.98,1717.60 1310.38,1716.77 1311.60,1715.92"/>
    </edge>
    <edge id=":3396157041_5" function="internal">
        <lane id=":3396157041_5_0" index="0" disallow="tram rail_urban rail rail_electric ship" speed="27.78" length="9.51" shape="1301.96,1709.50 1311.47,1709.32"/>
        <lane id=":3396157041_5_1" index="1" disallow="tram rail_urban rail rail_electric ship" speed="27.78" length="9.51" shape="1302.03,1712.80 1311.54,1712.62"/>
        <lane id=":3396157041_5_2" index="2" disallow="tram rail_urban rail rail_electric ship" speed="27.78" length="9.51" shape="1302.09,1716.10 1311.60,1715.92"/>
    </edge>
    <edge id=":3396157041_8" function="internal">
        <lane id=":3396157041_8_0" index="0" disallow="tram rail_urban rail rail_electric ship" speed="20.84" length="4.32" shape="1302.09,1716.10 1305.17,1716.87 1305.92,1717.73"/>
    </edge>
    <edge id=":3396157041_9" function="internal">
        <lane id=":3396157041_9_0" index="0" disallow="tram rail_urban rail rail_electric ship" speed="27.78" length="2.41" shape="1302.09,1716.10 1303.34,1716.90 1303.77,1717.72"/>
    </edge>
    <edge id=":3396157041_15" function="internal">
        <lane id=":3396157041_15_0" index="0" speed="20.84" length="12.08" shape="1305.92,1717.73 1307.29,1719.30 1308.45,1723.39 1308.64,1729.14"/>
    </edge>
    <edge id=":3396157041_16" function="internal">
        <lane id=":3396157041_16_0" index="0" speed="27.78" length="2.41" shape="1303.77,1717.72 1303.37,1718.55 1302.15,1719.40"/>
    </edge>
    <edge id=":3396157041_10" function="internal">
        <lane id=":3396157041_10_0" index="0" disallow="tram rail_urban rail rail_electric ship" speed="20.84" length="5.04" shape="1305.34,1729.09 1305.20,1727.72 1304.64,1726.74 1303.67,1726.17 1302.28,1726.00"/>
    </edge>
    <edge id=":3396157041_11" function="internal">
        <lane id=":3396157041_11_0" index="0" disallow="tram rail_urban rail rail_electric ship" speed="20.84" length="17.29" shape="1305.34,1729.09 1305.99,1721.93 1307.24,1716.79 1309.09,1713.69 1311.54,1712.62"/>
        <lane id=":3396157041_11_1" index="1" disallow="tram rail_urban rail rail_electric ship" speed="20.84" length="17.29" shape="1305.34,1729.09 1305.94,1723.37 1307.19,1719.27 1309.07,1716.79 1311.60,1715.92"/>
    </edge>
    <edge id=":3396157041_13" function="internal">
        <lane id=":3396157041_13_0" index="0" disallow="tram rail_urban rail rail_electric ship" speed="13.89" length="4.82" shape="1305.34,1729.09 1306.18,1727.87 1307.01,1727.47 1307.83,1727.89 1308.64,1729.14"/>
    </edge>
    <edge id=":3876463207_0" function="internal">
        <lane id=":3876463207_0_0" index="0" disallow="tram rail_urban rail rail_electric ship" speed="27.78" length="5.19" shape="1537.16,921.26 1531.97,921.14"/>
        <lane id=":3876463207_0_1" index="1" disallow="tram rail_urban rail rail_electric ship" speed="27.78" length="5.19" shape="1537.23,917.96 1532.04,917.84"/>
    </edge>
    <edge id=":4084420410_0" function="internal">
        <lane id=":4084420410_0_0" index="0" disallow="tram rail_urban rail rail_electric ship" speed="13.89" length="7.04" shape="1460.56,1318.21 1455.14,1313.72"/>
    </edge>
    <edge id=":4084420410_1" function="internal">
        <lane id=":4084420410_1_0" index="0" disallow="tram rail_urban rail rail_electric ship" speed="13.89" length="2.41" shape="1460.56,1318.21 1460.13,1316.78 1460.34,1315.89"/>
    </edge>
    <edge id=":4084420410_4" function="internal">
        <lane id=":4084420410_4_0" index="0" speed="13.89" length="2.41" shape="1460.34,1315.89 1461.19,1315.51 1462.67,1315.67"/>
    </edge>
    <edge id=":4084420410_2" function="internal">
        <lane id=":4084420410_2_0" index="0" disallow="tram rail_urban rail rail_electric ship" speed="13.89" length="7.04" shape="1457.25,1311.18 1462.67,1315.67"/>
    </edge>
    <edge id=":4084420410_3" function="internal">
        <lane id=":4084420410_3_0" index="0" disallow="tram rail_urban rail rail_electric ship" speed="13.89" length="2.41" shape="1457.25,1311.18 1457.67,1312.60 1457.46,1313.50"/>
    </edge>
    <edge id=":4084420410_5" function="internal">
        <lane id=":4084420410_5_0" index="0" speed="13.89" length="2.41" shape="1457.46,1313.50 1456.62,1313.87 1455.14,1313.72"/>
    </edge>
    <edge id=":4084420934_0" function="internal">
        <lane id=":4084420934_0_0" index="0" allow="delivery bicycle pedestrian" speed="5.56" length="4.84" shape="1579.21,1060.52 1578.84,1059.27 1578.17,1058.38 1577.18,1057.85 1575.89,1057.69"/>
    </edge>
    <edge id=":4084420934_1" function="internal">
        <lane id=":4084420934_1_0" index="0" allow="delivery bicycle pedestrian" speed="5.56" length="6.67" shape="1579.21,1060.52 1578.93,1057.88 1578.99,1055.97 1579.38,1054.79 1580.12,1054.34"/>
    </edge>
    <edge id=":4084420934_2" function="internal">
        <lane id=":4084420934_2_0" index="0" allow="delivery bicycle pedestrian" speed="5.56" length="4.82" shape="1579.21,1060.52 1579.84,1059.17 1580.60,1058.64 1581.48,1058.92 1582.48,1060.02"/>
    </edge>
    <edge id=":4084420934_3" function="internal">
        <lane id=":4084420934_3_0" index="0" allow="delivery bicycle pedestrian" speed="5.56" length="2.62" shape="1581.78,1057.50 1582.48,1060.02"/>
    </edge>
    <edge id=":4084420934_4" function="internal">
        <lane id=":4084420934_4_0" index="0" allow="delivery bicycle pedestrian" speed="5.56" length="5.90" shape="1581.78,1057.50 1575.89,1057.69"/>
    </edge>
    <edge id=":4084420934_5" function="internal">
        <lane id=":4084420934_5_0" index="0" allow="delivery bicycle pedestrian" speed="5.56" length="5.21" shape="1581.78,1057.50 1580.18,1057.33 1579.37,1056.75 1579.35,1055.75 1580.12,1054.34"/>
    </edge>
    <edge id=":4084420934_6" function="internal">
        <lane id=":4084420934_6_0" index="0" allow="delivery bicycle pedestrian" speed="5.56" length="4.27" shape="1575.85,1054.39 1580.12,1054.34"/>
    </edge>
    <edge id=":4084420934_7" function="internal">
        <lane id=":4084420934_7_0" index="0" allow="delivery bicycle pedestrian" speed="5.56" length="8.70" shape="1575.85,1054.39 1582.48,1060.02"/>
    </edge>
    <edge id=":4084420934_8" function="internal">
        <lane id=":4084420934_8_0" index="0" allow="delivery bicycle pedestrian" speed="5.56" length="4.82" shape="1575.85,1054.39 1577.10,1055.20 1577.52,1056.02 1577.12,1056.85 1575.89,1057.69"/>
    </edge>
    <edge id=":4084420938_0" function="internal">
        <lane id=":4084420938_0_0" index="0" allow="delivery bicycle pedestrian" speed="5.56" length="6.40" shape="1584.87,1052.53 1584.76,1054.58 1584.25,1056.09 1583.32,1057.06 1581.98,1057.48"/>
    </edge>
    <edge id=":4084420938_1" function="internal">
        <lane id=":4084420938_1_0" index="0" allow="delivery bicycle pedestrian" speed="5.56" length="3.74" shape="1584.87,1052.53 1584.35,1054.78 1583.38,1055.83"/>
    </edge>
    <edge id=":4084420938_4" function="internal">
        <lane id=":4084420938_4_0" index="0" speed="5.56" length="3.74" shape="1583.38,1055.83 1581.95,1055.68 1580.08,1054.34"/>
    </edge>
    <edge id=":4084420938_2" function="internal">
        <lane id=":4084420938_2_0" index="0" allow="delivery bicycle pedestrian" speed="5.56" length="0.25" shape="1580.32,1054.32 1580.08,1054.34"/>
    </edge>
    <edge id=":4084420938_3" function="internal">
        <lane id=":4084420938_3_0" index="0" allow="delivery bicycle pedestrian" speed="5.56" length="2.89" shape="1580.32,1054.32 1581.92,1054.49 1582.73,1055.07 1582.73,1055.36"/>
    </edge>
    <edge id=":4084420938_5" function="internal">
        <lane id=":4084420938_5_0" index="0" speed="5.56" length="2.31" shape="1582.73,1055.36 1582.75,1056.07 1581.98,1057.48"/>
    </edge>
    <edge id=":4084420950_0" function="internal">
        <lane id=":4084420950_0_0" index="0" allow="pedestrian" speed="8.33" length="3.07" width="2.00" shape="1517.81,1039.45 1517.30,1040.24 1516.78,1040.51 1516.25,1040.26 1515.71,1039.48"/>
    </edge>
    <edge id=":4084420951_0" function="internal">
        <lane id=":4084420951_0_0" index="0" allow="pedestrian" speed="8.33" length="3.06" width="2.00" shape="1515.38,1021.75 1515.89,1020.95 1516.41,1020.68 1516.94,1020.93 1517.48,1021.71"/>
    </edge>
    <edge id=":4084420974_0" function="internal">
        <lane id=":4084420974_0_0" index="0" allow="delivery bicycle pedestrian" speed="5.56" length="4.37" shape="1633.49,1243.49 1633.09,1242.40 1632.51,1241.50 1631.75,1240.77 1630.81,1240.21"/>
    </edge>
    <edge id=":4084420974_1" function="internal">
        <lane id=":4084420974_1_0" index="0" allow="delivery bicycle pedestrian" speed="5.56" length="4.82" shape="1633.49,1243.49 1633.97,1242.08 1634.67,1241.47 1635.57,1241.66 1636.68,1242.65"/>
    </edge>
    <edge id=":4084420974_2" function="internal">
        <lane id=":4084420974_2_0" index="0" allow="delivery bicycle pedestrian" speed="5.56" length="7.32" shape="1632.17,1237.21 1633.76,1238.14 1635.05,1239.36 1636.02,1240.86 1636.68,1242.65"/>
    </edge>
    <edge id=":4084420974_3" function="internal">
        <lane id=":4084420974_3_0" index="0" allow="delivery bicycle pedestrian" speed="5.56" length="4.82" shape="1632.17,1237.21 1632.96,1238.47 1632.99,1239.39 1632.28,1239.97 1630.81,1240.21"/>
    </edge>
    <edge id=":4084420975_0" function="internal">
        <lane id=":4084420975_0_0" index="0" allow="delivery bicycle pedestrian" speed="5.56" length="4.93" shape="1525.83,1252.20 1525.66,1247.27"/>
    </edge>
    <edge id=":4084420975_1" function="internal">
        <lane id=":4084420975_1_0" index="0" allow="delivery bicycle pedestrian" speed="5.56" length="2.56" shape="1525.83,1252.20 1526.61,1250.93 1527.42,1250.49 1527.55,1250.55"/>
    </edge>
    <edge id=":4084420975_4" function="internal">
        <lane id=":4084420975_4_0" index="0" speed="5.56" length="2.26" shape="1527.55,1250.55 1528.25,1250.87 1529.12,1252.08"/>
    </edge>
    <edge id=":4084420975_2" function="internal">
        <lane id=":4084420975_2_0" index="0" allow="delivery bicycle pedestrian" speed="5.56" length="4.78" shape="1529.22,1247.30 1529.12,1252.08"/>
    </edge>
    <edge id=":4084420975_3" function="internal">
        <lane id=":4084420975_3_0" index="0" allow="delivery bicycle pedestrian" speed="5.56" length="2.72" shape="1529.22,1247.30 1528.32,1248.62 1527.42,1249.06 1527.32,1249.01"/>
    </edge>
    <edge id=":4084420975_5" function="internal">
        <lane id=":4084420975_5_0" index="0" speed="5.56" length="2.48" shape="1527.32,1249.01 1526.54,1248.61 1525.66,1247.27"/>
    </edge>
    <edge id=":4084420976_0" function="internal">
        <lane id=":4084420976_0_0" index="0" allow="delivery bicycle pedestrian" speed="5.56" length="5.06" shape="1587.18,1241.54 1582.13,1241.82"/>
    </edge>
    <edge id=":4084420976_1" function="internal">
        <lane id=":4084420976_1_0" index="0" allow="delivery bicycle pedestrian" speed="5.56" length="2.41" shape="1587.18,1241.54 1585.90,1240.78 1585.44,1239.98"/>
    </edge>
    <edge id=":4084420976_4" function="internal">
        <lane id=":4084420976_4_0" index="0" speed="5.56" length="2.41" shape="1585.44,1239.98 1585.80,1239.14 1586.99,1238.24"/>
    </edge>
    <edge id=":4084420976_2" function="internal">
        <lane id=":4084420976_2_0" index="0" allow="delivery bicycle pedestrian" speed="5.56" length="5.06" shape="1581.94,1238.53 1586.99,1238.24"/>
    </edge>
    <edge id=":4084420976_3" function="internal">
        <lane id=":4084420976_3_0" index="0" allow="delivery bicycle pedestrian" speed="5.56" length="2.41" shape="1581.94,1238.53 1583.23,1239.28 1583.68,1240.08"/>
    </edge>
    <edge id=":4084420976_5" function="internal">
        <lane id=":4084420976_5_0" index="0" speed="5.56" length="2.41" shape="1583.68,1240.08 1583.32,1240.93 1582.13,1241.82"/>
    </edge>
    <edge id=":4084420979_0" function="internal">