<?xml version="1.0" encoding="UTF-8"?>

<!-- generated on Tue Nov 22 15:36:22 2016 by SUMO duarouter Version 0.25.0
<?xml version="1.0" encoding="UTF-8"?>

<configuration xmlns:xsi="http://www.w3.org/2001/XMLSchema-instance" xsi:noNamespaceSchemaLocation="http://sumo.dlr.de/xsd/duarouterConfiguration.xsd">

    <input>
        <net-file value="uah.net.xml"/>
        <trip-files value="trips.trips.xml"/>
    </input>

    <output>
        <output-file value="uah.rou.xml"/>
    </output>

    <processing>
        <ignore-errors value="true"/>
    </processing>

</configuration>
-->

<routes xmlns:xsi="http://www.w3.org/2001/XMLSchema-instance" xsi:noNamespaceSchemaLocation="http://sumo.dlr.de/xsd/routes_file.xsd">
    <vehicle id="0" depart="0.00">
        <route edges="-55283362 -7821920#4 -7821920#3 -7821920#2 -7821920#1 -7821920#0 -333585788#6 -333585788#5 -333585788#4 -333585788#3 -333585788#2 -333585788#1 -333585788#0 -52254238#6 -52254238#5 -52254238#4 -52254238#3 -52254238#2 -52254238#1 -52254238#0 7826396 77770189 7807540#0 7810855 7825009#4 7825009#5 7825009#6 7825009#7 7825009#8 7825009#9 -7813243 7824723#1 7824723#2 7824723#3 7824723#4 7824723#5 7824723#6 7824723#7 7824723#8 7824723#9 -7824723#9"/>
    </vehicle>
    <vehicle id="1" depart="1.00">
        <route edges="7806030#1 -7806030#1 -7810389 -54149349#2 -54149349#1 -54149349#0 7824402 184049917#0 184049917#1 54149355 406366694#0 406366694#1 -54974130#5 -54974130#4 -54974130#3 -54974130#2 -54974130#1 -54974130#0"/>
    </vehicle>
    <vehicle id="2" depart="2.00">
        <route edges="7820897 62192729#0 62192729#1 62192729#2 62192729#3 62192729#4 62192729#5 62192729#6 7801203#0 7801203#1 277170563 -277170560#1 -277170560#0 62192824#0 62192824#1 7819468#0 7819468#1"/>
    </vehicle>
    <vehicle id="3" depart="3.00">
        <route edges="7806030#1 -7806030#1 -7810389 54149349#3"/>
    </vehicle>
    <vehicle id="4" depart="4.00">
        <route edges="62192745#3 62192745#4 62192745#5 55283779#0 55283779#1 55283779#2 55283779#3 -54974130#6 406366694#2 7824722#0 7824722#1 7824722#2 7824722#3 7824722#4"/>
    </vehicle>
    <vehicle id="5" depart="5.00">
        <route edges="54974128#0 54974128#1 384343741#0 384343741#1 384343741#2 384343741#3 384343741#4 384343741#5 7798851#0 7798851#1 333585788#0 333585788#1 277170562 277170560#0 7801204#0 7801204#1"/>
    </vehicle>
    <vehicle id="6" depart="6.00">
        <route edges="7799582 -333585788#4 -333585788#3 -333585788#2 -333585788#1 -333585788#0 -52254238#6 -52254238#5 -52254238#4 -52254238#3 -52254238#2 -52254238#1 -52254238#0 7826396 77770189 77770190#0 77770190#1 77770190#2 -52254240#3 -7813343#4"/>
    </vehicle>
    <vehicle id="7" depart="7.00">
        <route edges="-194224943#1 -194224943#0 -7810521#1 -7810521#0 54974130#4 54974130#5 54974130#6 7824718#1 7824718#2 7824402 -70930942 -70930943 -384343742#1 -384343742#0 -7824401#8 -7824401#7 -7824401#6 -7824401#5 -7824401#4 7798828#0 7798828#1 7798828#2 7798828#3 7798828#4 7824723#5 7824723#6 7824723#7 7824723#8 7824723#9 7813879"/>
    </vehicle>
    <vehicle id="8" depart="8.00">
        <route edges="7825435#0 7825435#1 7825435#2 -7824722#2 -7824722#1 -7824722#0 7824718#0 7824718#1 7824718#2 7824402 -70930942 -70930943 -384343742#1 -384343742#0 -7824401#8 -7824401#7 -7824401#6 -7824401#5 -7824401#4 7798828#0 7798828#1 7798828#2 -7798828#2"/>
    </vehicle>
    <vehicle id="9" depart="9.00">
        <route edges="-7822072#3 -7822072#2 -7822072#1 -7822072#0 7819404#1 333585788#10 333585788#11 333585788#12 7801044"/>
    </vehicle>
    <vehicle id="10" depart="10.00">
        <route edges="54974130#0 54974130#1 54974130#2 54974130#3 54974130#4 54974130#5 406366694#2 7824722#0 7822465#0 7822465#1 55283363#0 55283363#1 55283777#0 7826749#0 7826749#1 -7821920#4 7805227#1 7805227#2 7805227#3"/>
    </vehicle>
    <vehicle id="11" depart="11.00">
        <route edges="-7822547#1 7817871 -54149349#3 -54149349#2 -54149349#1 -54149349#0 7824402 184049917#0 184049917#1 54149355 406366694#0 406366694#1 54974130#6 -55283779#3 -55283779#2 406366695 -406366695"/>
    </vehicle>
    <vehicle id="12" depart="12.00">
        <route edges="184049917#0 184049917#1 54149355 406366694#0 406366694#1 54974130#6 7824718#1 7824718#2 7824402 -70930942 -70930943 -384343742#1 7810516 384343741#1 384343741#2 384343741#3 384343741#4 384343741#5 384343741#6 384343741#7 384343741#8 384343741#9 7825009#0 7825009#1 7806080 77770190#1 332477357 52254241#1 7814624"/>
    </vehicle>
    <vehicle id="13" depart="13.00">
        <route edges="-7819468#1 -7819468#0 333585788#2 333585788#3 333585788#4 333585788#5 333585788#6 333585788#7 333585788#8 333585788#9 333585788#10 333585788#11 333585788#12 333585788#13 7820714#0 7820714#1 -7801044"/>
    </vehicle>
    <vehicle id="14" depart="14.00">
        <route edges="-7810120#1 -7810120#0 -52254238#4 -52254238#3 -52254238#2 -52254238#1 -52254238#0 7826396 77770189 7807540#0 7810855 7825009#4 7825009#5 7825009#6 7825009#7 7825009#8 7825009#9 -7813243 7824723#1 7824723#2 7824723#3 7824723#4 7824723#5 7824723#6 7824723#7"/>
    </vehicle>
    <vehicle id="15" depart="15.00">
        <route edges="-7820714#2 -7820714#1 -7820714#0 -333585788#13 -333585788#12 -333585788#11 -333585788#10 -333585788#9 -333585788#8 -333585788#7 -333585788#6 -333585788#5 -333585788#4 -333585788#3 -333585788#2 -333585788#1 -333585788#0 -52254238#6 -52254238#5 -52254238#4 -52254238#3 -52254238#2 -52254238#1 -52254238#0 7826396 77770189 7807540#0 7810855 7825009#4 7825009#5 7825009#6 7825009#7 7825009#8 7825009#9 7825009#10 7825009#11 7825009#12 7825009#13 7824401#8 384343742#0 384343742#1 70930943 70930942 184049917#0 184049917#1 54149355 406366694#0 406371909#0 406371909#1 -406371910#1 -406371910#0"/>
    </vehicle>
    <vehicle id="16" depart="16.00">
        <route edges="333585788#1 333585788#2 333585788#3 333585788#4 333585788#5 333585788#6 7821920#0 7821920#1 7821920#2 7821920#3 7821920#4 55283778 55283776 55283775 -7822669#1 -7822669#0 7822072#4 -7824722#3 -7825435#2 -7825435#1 -7825435#0 7825435#0"/>
    </vehicle>
    <vehicle id="17" depart="17.00">
        <route edges="-7814454#1 -7810177 52254238#4 52254238#5 52254238#6 333585788#0 333585788#1 333585788#2 333585788#3 333585788#4 333585788#5 333585788#6 7821920#0 7821920#1 7821920#2 7821920#3 7821920#4 55283778 55283776 55283775 -7822669#1 -7822669#0 7822072#4 7824722#4 7824722#5 7824722#6"/>
    </vehicle>
    <vehicle id="18" depart="18.00">
        <route edges="7814454#1 7814454#0 -7810177 52254238#4 52254238#5 52254238#6 333585788#0 333585788#1 277170562 62192824#0 -7801204#1"/>
    </vehicle>
    <vehicle id="20" depart="20.00">
        <route edges="55283363#0 55283363#1 55283777#0 7826749#0 7826749#1 -7821920#4 -7821920#3 -7821920#2 -7821920#1 -7821920#0 -333585788#6 -333585788#5 -333585788#4 -333585788#3 -333585788#2 -333585788#1 -333585788#0 -52254238#6 -52254238#5 -52254238#4 -52254238#3 -52254238#2 -52254238#1 -52254238#0 7826396 77770189 77770190#0 77770190#1 332477357 52254241#1 52254241#2"/>
    </vehicle>
    <vehicle id="21" depart="21.00">
        <route edges="52254238#6 -52254238#6 -52254238#5 -52254238#4 -52254238#3 -52254238#2 -52254238#1 -52254238#0 7826396 77770189 7807540#0 7810855 7825009#4 7825009#5 7825009#6 7825009#7 7825009#8 7819471#0 7819471#1 -7820900#3 -7820900#2 -7820900#1 -7820900#0 7822547#0 7822547#1"/>
    </vehicle>
    <vehicle id="22" depart="22.00">
        <route edges="52254240#3 52254241#0 52254241#1 52254241#2 7806789#0 7811828 7825009#6 7825009#7 7825009#8 7825009#9 7825009#10 7825009#11 7825009#12 7825009#13 7824401#8 384343742#0 384343742#1 70930943 70930942 184049917#0 184049917#1 54149355 406366694#0 406366694#1 -54974130#5 -54974130#4 -54974130#3 -54974130#2 -54974130#1 -54974130#0"/>
    </vehicle>
    <vehicle id="23" depart="23.00">
        <route edges="7820524#0 7820524#1 -7822072#4 7822669#0 7822669#1 -55283775 -55283776 -55283778 -7821920#4 -7821920#3 -7821920#2 -7821920#1 -7821920#0 -333585788#6 -333585788#5 -333585788#4 -333585788#3 -333585788#2 277170562 62192824#0"/>
    </vehicle>
    <vehicle id="24" depart="24.00">
        <route edges="-7816932 -7824723#2 -7824723#1 -7824723#0 7825009#11 7825009#12 7825009#13 7824401#8 384343742#0 384343742#1 70930943 70930942 184049917#0 184049917#1 54149355 406366694#0 406366694#1 406366694#2 7824722#0 7822465#0 7822465#1 55283363#0 55283363#1 55283777#0 7826749#0 7826749#1 55283362 -7821525#1"/>
    </vehicle>
    <vehicle id="25" depart="25.00">
        <route edges="7810390 -7798828#1 -7798828#0 7824401#4 7824401#5 7824401#6 7824401#7 7824401#8 384343742#0 384343742#1 70930943 70930942 184049917#0 184049917#1 54149355 406366694#0 406366694#1 54974130#6 -55283779#3 -55283779#2 -406366714 406366713#1 406366713#2"/>
    </vehicle>
    <vehicle id="26" depart="26.00">
        <route edges="-333585788#2 -333585788#1 -333585788#0 -52254238#6 -52254238#5 -52254238#4 -52254238#3 -52254238#2 -52254238#1 -52254238#0 7826396 77770189 7807540#0 7810855 7825009#4 7825009#5 7825009#6 7825009#7 7825009#8 7825009#9 7825009#10 7825009#11 7825009#12 7825009#13 7825009#14 7825009#15 54974128#0"/>
    </vehicle>
    <vehicle id="27" depart="27.00">
        <route edges="7818451 7798856#8 -7798853#1 -7798853#0 384343741#7 384343741#8 384343741#9 7825009#0 -7813223"/>
    </vehicle>
    <vehicle id="28" depart="28.00">
        <route edges="-7799582 -7821920#1 -7821920#0 333585788#7 333585788#8 333585788#9 333585788#10 333585788#11 333585788#12 333585788#13 7820714#0"/>
    </vehicle>
    <vehicle id="29" depart="29.00">
        <route edges="384343741#8 384343741#9 7825009#0 7825009#1 7806080 77770190#1 332477357 52254241#1 52254241#2 52254241#3 77770192 77770193 7826396"/>
    </vehicle>
    <vehicle id="30" depart="30.00">
        <route edges="277170561#2 7820897 62192729#0 62192729#1 62192729#2 62192729#3 62192729#4 62192729#5 62192729#6 62192745#0 62192745#1 62192745#2 62192745#3 62192745#4 62192745#5 55283779#0 55283779#1 55283779#2 55283779#3 -54974130#6 -54974130#5 -54974130#4 -54974130#3 -54974130#2 -54974130#1 -54974130#0"/>
    </vehicle>
    <vehicle id="31" depart="31.00">
        <route edges="7813343#2 7813343#3 7813343#4 52254240#3 52254241#0 52254241#1 52254241#2 7806789#0 7811828 7825009#6 7825009#7 7825009#8 7819471#0 7819471#1 7820900#4 -7820900#4"/>
    </vehicle>
    <vehicle id="32" depart="32.00">
        <route edges="-7818451 7798856#6 7798856#7 7798856#8 -7798853#1 7825009#7 7825009#8 7825009#9 7825009#10 7825009#11 7825009#12 7810518 -7824401#6 -7824401#5 -7824401#4 7798828#0 7798828#1 -7798828#1"/>
    </vehicle>
    <vehicle id="33" depart="33.00">
        <route edges="-7798856#1 7798856#1 -7812215 7813343#2 7813343#3 7813343#4 52254240#3 52254241#0 52254241#1 52254241#2 7806789#0 7811828 7825009#6 7825009#7 7825009#8 7819471#0 7819471#1 -7820900#3 -7820900#2 -7820900#1 -7806030#3 -7806030#2 -7806030#1"/>
    </vehicle>
    <vehicle id="34" depart="34.00">
        <route edges="7807540#0 7810855 7825009#4 7825009#5 7825009#6 7825009#7 7825009#8 7825009#9 7825009#10 7825009#11 7825009#12 7825009#13 7824401#8 384343742#0 384343742#1 70930943 70930942 184049917#0 184049917#1 54149355 406366694#0 406366694#1 -54974130#5 -54974130#4 7810521#0 7810521#1 7810521#2 194224944 194224947"/>
    </vehicle>
    <vehicle id="35" depart="35.00">
        <route edges="-7809240 -7801204#0 -277170560#0 62192824#0 62192824#1 333585788#2 333585788#3 333585788#4 333585788#5 333585788#6 333585788#7 333585788#8 333585788#9 333585788#10 333585788#11 333585788#12 7801044"/>
    </vehicle>
    <vehicle id="36" depart="36.00">
        <route edges="7799582 333585788#5 7808650"/>
    </vehicle>
    <vehicle id="37" depart="37.00">
        <route edges="-7819471#1 384343741#4 384343741#5 7798851#0 7798851#1 333585788#0 333585788#1 333585788#2 333585788#3 333585788#4 333585788#5 333585788#6 333585788#7 333585788#8 333585788#9 -7819404#1 7819404#1"/>
    </vehicle>
    <vehicle id="38" depart="38.00">
        <route edges="333585788#3 -333585788#3 -333585788#2 -333585788#1 -333585788#0 -52254238#6 -52254238#5 -52254238#4 -52254238#3 -52254238#2 -52254238#1 -52254238#0 7826396 77770189 7807540#0 7810855 7825009#4 7825009#5 7825009#6 7825009#7 7825009#8"/>
    </vehicle>
    <vehicle id="39" depart="39.00">
        <route edges="52254241#3 77770192 77770193 7826396 77770189 7807540#0 7810855 7825009#4 7825009#5 7825009#6 7825009#7 7825009#8 7825009#9 7825009#10 7825009#11 7825009#12 7825009#13 7825009#14 7825009#15"/>
    </vehicle>
    <vehicle id="40" depart="40.00">
        <route edges="384343741#9 7825009#0 7825009#1 7825009#2 7825009#3 7825009#4 7825009#5 7825009#6 7825009#7 7825009#8 7825009#9 7825009#10 7825009#11 7825009#12 7825009#13 7824401#8 384343742#0 384343742#1 70930943 70930942 184049917#0 184049917#1 54149355 406366694#0 406366694#1 406366694#2 7824722#0 7822465#0 7822465#1 55283363#0 -7820217"/>
    </vehicle>
    <vehicle id="41" depart="41.00">
        <route edges="-7826775#1 -7826775#0 -333585788#4 -333585788#3 -333585788#2 277170562 277170560#0 277170560#1 277170561#0 277170561#1 277170561#2 7820897 62192729#0 62192729#1 62192729#2 62192729#3 62192729#4 62192729#5 62192729#6 62192745#0 62192745#1 62192745#2 62192745#3 62192745#4 62192745#5 406366712#0 406366712#1 406366713#0"/>
    </vehicle>
    <vehicle id="42" depart="42.00">
        <route edges="7820900#3 -7819471#1 384343741#4 384343741#5 7798851#0 7798851#1 333585788#0 333585788#1 333585788#2 333585788#3 7813338 7826775#1"/>
    </vehicle>
    <vehicle id="43" depart="43.00">
        <route edges="-7810276 -7815499#1 -7815499#0 7819471#0 7819471#1 -7820900#3 -7820900#2 -7820900#1 -7820900#0 -54149349#4 -54149349#3 -54149349#2 -54149349#1 7806030#0"/>
    </vehicle>
    <vehicle id="44" depart="44.00">
        <route edges="7818795 -333585788#11 -333585788#10 -333585788#9 -333585788#8 -333585788#7 -333585788#6 -333585788#5 -333585788#4 -333585788#3 -333585788#2 -333585788#1 -333585788#0 -52254238#6 -52254238#5 -52254238#4 -52254238#3 -52254238#2 -52254238#1 -52254238#0 7826396 77770189 7807540#0 7810855 7825009#4 7825009#5 7825009#6 7825009#7 7825009#8 7825009#9 7825009#10 7825009#11 7825009#12 7825009#13 7824401#8 384343741#0 384343741#1"/>
    </vehicle>
    <vehicle id="45" depart="45.00">
        <route edges="55283776 55283775 7822669#2 -7822465#1 -7822465#0 -7824722#0 7824718#0 7824718#1 7824718#2 7824402 -70930942 -70930943 -384343742#1 -384343742#0 -7824401#8 -7824401#7 -7824401#6 -7824401#5 -7824401#4 7798828#0 7798828#1 7798828#2 7798828#3"/>
    </vehicle>
    <vehicle id="46" depart="46.00">
        <route edges="7819404#0 7822072#0 7822072#1 7822072#2 7822072#3 7822072#4 -7824722#3 -7824722#2 -7824722#1 7804195#0 7804195#1"/>
    </vehicle>
    <vehicle id="47" depart="47.00">
        <route edges="406366705#4 406366705#5 62192745#5 55283779#0 55283779#1 406366695 406366696#0"/>
    </vehicle>
    <vehicle id="48" depart="48.00">
        <route edges="-7823337#3 -7823337#2 -7823337#1 -7823337#0 333585788#9 -7819404#1 7822072#0 7822072#1 7822072#2 7822072#3 7822072#4 -7824722#3 -7825435#2 -7825435#1"/>
    </vehicle>
    <vehicle id="49" depart="49.00">
        <route edges="-7822072#2 -7822072#1 -7822072#0 -7819404#0"/>
    </vehicle>
    <vehicle id="50" depart="50.00">
        <route edges="7821525#1 -55283362 -7821920#4 -7821920#3 -7821920#2 -7821920#1 -7821920#0 -333585788#6 -333585788#5 -333585788#4 -333585788#3 -333585788#2 -333585788#1 -333585788#0 -52254238#6 -52254238#5 -52254238#4 -52254238#3 -52254238#2 -52254238#1 -52254238#0 7826396 77770189 7807540#0 7810855 7825009#4 7825009#5 7825009#6 7825009#7 7825009#8 7819471#0 7819471#1 -7820900#3 -7820900#2 -7820900#1 -7806030#3"/>
    </vehicle>
    <vehicle id="51" depart="51.00">
        <route edges="-7826749#0 7826749#0 7826749#1 -7821920#4 -7821920#3 -7821920#2 -7821920#1 -7821920#0 -333585788#6 -333585788#5 -333585788#4 -333585788#3 -333585788#2 -333585788#1 -333585788#0 -52254238#6 -52254238#5 -52254238#4 -52254238#3 -52254238#2 -52254238#1 -52254238#0 7826396 77770189 77770190#0 77770190#1 77770190#2 -52254240#3 -7813343#4 7813718#2 -7798856#4"/>
    </vehicle>
    <vehicle id="52" depart="52.00">
        <route edges="-7813718#0 52254240#1 52254240#2 52254240#3 52254241#0 52254241#1 52254241#2 7806789#0 7811828 7825009#6 7825009#7 -7798856#9 -7798856#8 -7798856#7 -7798856#6"/>
    </vehicle>
    <vehicle id="53" depart="53.00">
        <route edges="384343741#1 384343741#2 384343741#3 -7819471#0 7825009#9 7825009#10 7825009#11 7825009#12 7825009#13 7824401#8 384343742#0 384343742#1 70930943 70930942 184049917#0 184049917#1 54149355 406366694#0 406366694#1 -54974130#5 -54974130#4 -54974130#3 -54974130#2 -54974130#1 -54974130#0"/>
    </vehicle>
    <vehicle id="54" depart="54.00">
        <route edges="54974130#3 7810521#0 7810521#1 7810521#2 194224944 -70930945#1"/>
    </vehicle>
    <vehicle id="55" depart="55.00">
        <route edges="-62192745#4 62192745#4 62192745#5 55283779#0 55283779#1 55283779#2 55283779#3 7824718#1 7824718#2 7824402 -70930942 -70930943 -384343742#1 -384343742#0 -7824401#8 -7824401#7 -7824401#6 -7824401#5 -7824401#4 -7824401#3 -7824401#2 -7802673"/>
    </vehicle>
    <vehicle id="56" depart="56.00">
        <route edges="-7824722#6 -7824722#5 -7824722#4 -7824722#3 -7824722#2 -7824722#1 -7824722#0 7824718#0 -54974130#6 -54974130#5 -54974130#4 -54974130#3 -54974130#2 -54974130#1 70930949#0 70930949#1 -70930948 70930951#0"/>
    </vehicle>
    <vehicle id="57" depart="57.00">
        <route edges="-7824722#5 -7824722#4 -7824722#3 -7824722#2 -7824722#1 -7824722#0 7824718#0 7824718#1 7824718#2 7824402 -70930942 -70930943 -384343742#1 -384343742#0 -7824401#8 7825009#14 7825009#15"/>
    </vehicle>
    <vehicle id="58" depart="58.00">
        <route edges="-7798856#4 7798856#4 -7813718#2 7813343#4 52254240#3 52254241#0 52254241#1 52254241#2 52254241#3 77770192 77770193 52254238#0 52254238#1 52254238#2 52254238#3 52254238#4 52254238#5 52254238#6 333585788#0 333585788#1 333585788#2 333585788#3 333585788#4 333585788#5 333585788#6 7821920#0 7821920#1 7821920#2 7821920#3 7821920#4 55283778 55283776 55283775 7822669#2"/>
    </vehicle>
    <vehicle id="59" depart="59.00">
        <route edges="7802665 7824401#5 7824401#6 7824401#7 7824401#8 384343741#0 384343741#1 384343741#2 384343741#3 384343741#4 384343741#5 7798851#0 7798851#1 333585788#0 333585788#1 333585788#2 333585788#3 333585788#4 333585788#5 333585788#6 333585788#7 333585788#8 7823337#0 7823337#1 -7823337#1"/>
    </vehicle>
    <vehicle id="60" depart="60.00">
        <route edges="7824718#0 -54974130#6 406366694#2 7824722#0 7822465#0 7822465#1 55283363#0 55283363#1 55283777#0"/>
    </vehicle>
    <vehicle id="61" depart="61.00">
        <route edges="7825009#9 7825009#10 7825009#11 7825009#12 7825009#13 7824401#8 384343741#0 384343741#1 384343741#2 384343741#3 384343741#4 384343741#5 384343741#6 384343741#7 384343741#8 384343741#9 7825009#0 7825009#1 7806080 77770190#1 332477357 52254241#1 52254241#2 52254241#3 77770192"/>
    </vehicle>
    <vehicle id="62" depart="62.00">
        <route edges="52254238#0 -52254238#0 7826396 77770189 7807540#0 7810855 7825009#4 7825009#5 7825009#6 7825009#7 7825009#8 7825009#9 7825009#10 7825009#11 7825009#12 7825009#13 7824401#8 384343741#0 384343741#1"/>
    </vehicle>
    <vehicle id="63" depart="63.00">
        <route edges="7820900#0 7820900#1 -7815081 384343741#2 384343741#3 384343741#4 384343741#5 7798851#0 7798851#1 333585788#0 333585788#1 333585788#2 333585788#3 333585788#4 333585788#5 333585788#6 7821920#0 7821920#1 7821920#2 7805223#1"/>
    </vehicle>
    <vehicle id="64" depart="64.00">
        <route edges="7822960#1 7825435#1 7825435#2 7824722#3 -7822072#4 7822669#0 7822669#1 -55283775 -55283776 -55283778 -7821920#4 -7821920#3 -7821920#2 -7821920#1 -7821920#0 -333585788#6 -333585788#5"/>
    </vehicle>
    <vehicle id="65" depart="65.00">
        <route edges="-7805227#2 7805223#0 7821920#3 7821920#4 55283778 55283776 55283775 -7822669#1 -7822669#0 7822072#4 -7824722#3 -7825435#2 -7825435#1 7825435#1"/>
    </vehicle>
    <vehicle id="66" depart="66.00">
        <route edges="194224947 -7810521#1 -7810521#0 -54974130#3 -54974130#2 -54974130#1 -54974130#0"/>
    </vehicle>
    <vehicle id="67" depart="67.00">
        <route edges="7813544 7802656#1 7824401#6 7824401#7 7824401#8 384343741#0 384343741#1 384343741#2 384343741#3 384343741#4 384343741#5 384343741#6 384343741#7 384343741#8 384343741#9 7825009#0 7825009#1 7806080 77770190#1 332477357 52254241#1 52254241#2 7806789#0"/>
    </vehicle>
    <vehicle id="68" depart="68.00">
        <route edges="-7822072#4 7822669#0 7822669#1 -55283775 -55283776 -55283778 -7821920#4 7805227#1 -7801160"/>
    </vehicle>
    <vehicle id="69" depart="69.00">
        <route edges="7806030#1 7806030#2 7806030#3 7820900#1 -7815081 384343741#2 384343741#3 384343741#4 -7798856#10 -7798856#9 -7798856#8 -7818451"/>
    </vehicle>
    <vehicle id="70" depart="70.00">
        <route edges="-7824722#6 -7824722#5 -7824722#4 -7824722#3 -7824722#2 -7824722#1 -7824722#0 7824718#0 -54974130#6 -54974130#5 -54974130#4 -54974130#3 -54974130#2 -54974130#1 -54974130#0"/>
    </vehicle>
    <vehicle id="71" depart="71.00">
        <route edges="-7824723#11 7813343#0 7813343#1 7813343#2 7813343#3 7813343#4 52254240#3 52254241#0 52254241#1 52254241#2 52254241#3 77770192 77770193 52254238#0 52254238#1 52254238#2 52254238#3 52254238#4 7810120#0 7812468"/>
    </vehicle>
    <vehicle id="72" depart="72.00">
        <route edges="-7804195#1 -7804195#0 -7824722#0 7824718#0 7824718#1 7824718#2 7824402 -70930942 -70930943 -384343742#1 -384343742#0 -7824401#8 -7824401#7 -7824401#6 -7824401#5 -7824401#4 -7824401#3 7802665"/>
    </vehicle>
    <vehicle id="73" depart="73.00">
        <route edges="7806080 77770190#1 332477357 52254241#1 52254241#2 7806789#0 7811828 7825009#6 7825009#7 7825009#8 7825009#9 7825009#10 7825009#11 7825009#12 7810518 -7824401#6 -7824401#5 -7824401#4 -7824401#3 -7824401#2 -7824401#1 7802673"/>
    </vehicle>
    <vehicle id="74" depart="74.00">
        <route edges="-7821039 7822072#1 7822072#2 7825263 7821525#1 -55283362 55283778 55283776"/>
    </vehicle>
    <vehicle id="75" depart="75.00">
        <route edges="-55283778 -7821920#4 -7821920#3 -7821920#2 -7821920#1 -7821920#0 -333585788#6 -333585788#5 -333585788#4 -333585788#3 -333585788#2 277170562 62192824#0 -7801204#1"/>
    </vehicle>
    <vehicle id="76" depart="76.00">
        <route edges="54974130#0 54974130#1 54974130#2 54974130#3 54974130#4 54974130#5 406366694#2 7824722#0 7822465#0 7822465#1 -7822669#2 -7822669#1 7821525#0 7821525#1"/>
    </vehicle>
    <vehicle id="77" depart="77.00">
        <route edges="7798856#9 7825009#8 7819471#0 7819471#1 7820900#4 7816888 62192729#0 62192729#1 62192729#2 62192729#3 62192729#4 62192729#5 62192729#6 62192745#0 62192745#1 62192745#2 62192745#3 62192745#4 62192745#5 -62192745#5"/>
    </vehicle>
    <vehicle id="78" depart="78.00">
        <route edges="-7820714#2 -7820714#1 -7820714#0 -333585788#13 -333585788#12 -333585788#11 -333585788#10 -333585788#9 -333585788#8 -333585788#7 -333585788#6 -333585788#5 -333585788#4 -333585788#3 -333585788#2 -333585788#1 -333585788#0 -52254238#6 -52254238#5 -52254238#4 -52254238#3 -52254238#2 -52254238#1 -52254238#0 7826396 77770189 7807540#0 7810855 7825009#4 7825009#5 7825009#6 7825009#7 7825009#8 7825009#9 -7813243 7824723#1 7824723#2 7824723#3 7824723#4 -7798828#4 -7798828#3 7810390"/>
    </vehicle>
    <vehicle id="79" depart="79.00">
        <route edges="7798856#6 7798856#7 7798856#8 -7798853#1 7825009#7 7825009#8 7825009#9 7825009#10 7825009#11 7825009#12 7825009#13 7824401#8 384343742#0 384343742#1 70930943 70930942 184049917#0 184049917#1 54149355 406366694#0 406366694#1 -54974130#5 -54974130#4 -54974130#3 -54974130#2 -54974130#1 -54974130#0"/>
    </vehicle>
    <vehicle id="80" depart="80.00">
        <route edges="7821525#0 7821525#1 -55283362 55283778 7826850"/>
    </vehicle>
    <vehicle id="81" depart="81.00">
        <route edges="7824722#5 -7824722#5 -7824722#4 -7822072#4 7822669#0 7821525#0"/>
    </vehicle>
    <vehicle id="82" depart="82.00">
        <route edges="7806789#3 7798851#1 333585788#0 -333585788#0 -52254238#6 -52254238#5 -52254238#4 -52254238#3 -52254238#2 -52254238#1 -52254238#0 7826396 77770189 7807540#0 7810855 7825009#4 7825009#5 7825009#6 7825009#7 7825009#8 7825009#9 7825009#10 7824723#0"/>
    </vehicle>
    <vehicle id="83" depart="83.00">
        <route edges="7822072#2 7822072#3 7822072#4 -7824722#3 -7824722#2 -7824722#1 -7824722#0 7824718#0 7824718#1 7824718#2 7824402 184049917#0 406371889#0 406371889#1 406371889#2"/>
    </vehicle>
    <vehicle id="84" depart="84.00">
        <route edges="7813718#2 -7813718#2 7813343#4 52254240#3 52254241#0 52254241#1 52254241#2 7806789#0 7811828 7825009#6 7825009#7 7825009#8 7825009#9 7825009#10 7825009#11 7825009#12 7825009#13 7824401#8 384343742#0 384343742#1 70930943 70930942 184049917#0 184049917#1 54149355 406366694#0 406366694#1 54974130#6 7824718#1"/>
    </vehicle>
    <vehicle id="85" depart="85.00">
        <route edges="7820900#4 -7820900#4 -7819471#1 -7819471#0 7825009#9 7825009#10 7825009#11 7825009#12 7825009#13 7825009#14 7825009#15 54974128#0"/>
    </vehicle>
    <vehicle id="86" depart="86.00">
        <route edges="-7813718#1 52254240#2 52254240#3 52254241#0 52254241#1 52254241#2 7806789#0 7811828 7825009#6 -7798853#0 384343741#7"/>
    </vehicle>
    <vehicle id="87" depart="87.00">
        <route edges="-7826749#0 -55283777#0 -55283363#1 -55283363#0 -7822465#1 -7822465#0 -7824722#0 7824718#0 7824718#1 7824718#2 7824402 -70930942 -70930943 -384343742#1 7810516 384343741#1 384343741#2 384343741#3 -7819471#0 7825009#9"/>
    </vehicle>
    <vehicle id="88" depart="88.00">
        <route edges="-7813879 -7824723#9 -7824723#8 -7824723#7 -7824723#6 -7824723#5 -7798828#4 -7798828#3 -7798828#2 -7798828#1 -7798828#0 -7824401#3 -7824401#2 -7824401#1 -7824401#0"/>
    </vehicle>
    <vehicle id="89" depart="89.00">
        <route edges="7826749#0 -7826749#0 -55283777#0 -55283363#1 -55283363#0 -7822465#1 -7822465#0 -7824722#0 7824718#0 7824718#1 7824718#2 7824402 -70930942 -70930943 -384343742#1 -384343742#0 384343741#0"/>
    </vehicle>
    <vehicle id="90" depart="90.00">
        <route edges="-7824722#3 7824722#3 -7822072#4 7822669#0 7821525#0 -7821525#0"/>
    </vehicle>
    <vehicle id="91" depart="91.00">
        <route edges="-7801921 -7823337#0 333585788#9 -7819404#1 7822072#0 7822072#1 7822072#2"/>
    </vehicle>
    <vehicle id="92" depart="92.00">
        <route edges="7822960#1 7825435#1 7825435#2 -7824722#2 -7824722#1 -7824722#0 7824718#0 -55283779#3 -55283779#2 -55283779#1 -55283779#0 -62192745#5 -62192745#4 -62192745#3 406366705#0 406366705#1 406366705#2"/>
    </vehicle>
    <vehicle id="93" depart="93.00">
        <route edges="194224945 70930950#1 70930951#0 70930951#1 54974130#2 54974130#3 54974130#4 54974130#5 54974130#6 7824718#1 7824718#2 7824402 -70930942 -70930943 -384343742#1 7810516 384343741#1 384343741#2 384343741#3 384343741#4 384343741#5 7798851#0 7798851#1 333585788#0 333585788#1 7819468#0 7819468#1"/>
    </vehicle>
    <vehicle id="94" depart="94.00">
        <route edges="-333585788#0 333585788#0 333585788#1 333585788#2 333585788#3 333585788#4 333585788#5 333585788#6 7821920#0 7821920#1 7821920#2 7821920#3 7821920#4 -7826749#1 -7826749#0 -55283777#0 -55283363#1 -7820217"/>
    </vehicle>
    <vehicle id="95" depart="95.00">
        <route edges="-54974130#5 54974130#5 54974130#6 7824718#1 7824718#2 7824402 -70930942 -70930943 -384343742#1 -384343742#0 -7824401#8 7825009#14 7825009#15"/>
    </vehicle>
    <vehicle id="96" depart="96.00">
        <route edges="55283778 55283776 55283775 7822669#2 -7822465#1 -7822465#0 -7824722#0 7824718#0 7824718#1 7824718#2 7824402 -70930942 -70930943 -384343742#1 -384343742#0 -7824401#8 -7824401#7 -7824401#6 -7824401#5 -7824401#4 -7824401#3 -7824401#2 -7824401#1 7802673"/>
    </vehicle>
    <vehicle id="97" depart="97.00">
        <route edges="7821525#1 -55283362 -7826749#1 -7826749#0 -55283777#0 -55283363#1 -55283363#0 -7822465#1 -7822465#0 -7824722#0 7824718#0 7824718#1 7824718#2 7824402 -70930942 -70930943 -384343742#1 -384343742#0 -7824401#8 -7824401#7 7802654"/>
    </vehicle>
    <vehicle id="98" depart="98.00">
        <route edges="55283776 55283775 7822669#2 -7822465#1 -7822465#0 -7824722#0 7824718#0 7824718#1 7824718#2 54149349#0 54149349#1 54149349#2 54149349#3 -7817871 7822547#1"/>
    </vehicle>
    <vehicle id="99" depart="99.00">
        <route edges="-7818451 7798856#6 7798856#7 7798856#8 -7798853#1 7825009#7 7825009#8 7825009#9 7825009#10 7825009#11 7825009#12 7825009#13 7824401#8 384343742#0 384343742#1 70930943 70930942 184049917#0 184049917#1 54149355 406366694#0 406366694#1 406366694#2 7824722#0 7824722#1 7824722#2"/>
    </vehicle>
</routes>
