<?xml version="1.0" encoding="UTF-8"?>

<!-- generated on Tue Nov 22 14:37:01 2016 by SUMO polyconvert Version 0.25.0
<?xml version="1.0" encoding="UTF-8"?>

<configuration xmlns:xsi="http://www.w3.org/2001/XMLSchema-instance" xsi:noNamespaceSchemaLocation="http://sumo.dlr.de/xsd/polyconvertConfiguration.xsd">

    <input>
        <net-file value="uah.net.xml"/>
        <osm-files value="uah.map.osm"/>
        <type-file value="typemap.xml"/>
    </input>

    <output>
        <output-file value="uah.poly.xml"/>
    </output>

    <processing>
        <poi-layer-offset value="5"/>
    </processing>

</configuration>
-->

<additional xmlns:xsi="http://www.w3.org/2001/XMLSchema-instance" xsi:noNamespaceSchemaLocation="http://sumo.dlr.de/xsd/additional_file.xsd">
    <location netOffset="-531469.12,-3841994.83" convBoundary="0.00,-338.45,5165.67,2541.13" origBoundary="-86.656281,34.716445,-86.599821,34.742360" projParameter="+proj=utm +zone=16 +ellps=WGS84 +datum=WGS84 +units=m +no_defs"/>

    <poly id="289924346" type="parking" color="184,184,179" fill="1" layer="-1.00" shape="735.26,1987.04 691.51,1858.83 854.56,1804.70 909.96,1816.58 937.89,1904.45 986.89,1887.97 999.82,1904.91 1008.52,1919.37 1014.95,1937.55 1013.40,1951.71 991.28,1989.93 967.04,1994.81 945.08,1919.15 735.26,1987.04"/>
    <poly id="304223336" type="building" color="255,230,230" fill="1" layer="-1.00" shape="981.46,936.16 1027.74,906.01 1010.15,876.61 1038.74,848.36 1016.28,812.09 993.66,820.82 977.04,797.28 927.84,821.56 943.47,847.04 953.31,841.20 963.09,854.93 975.87,848.14 982.41,860.86 979.70,875.53 956.08,893.04 981.46,936.16"/>
    <poly id="304229699" type="building" color="255,230,230" fill="1" layer="-1.00" shape="796.04,861.24 872.98,859.74 872.61,796.22 857.10,796.16 857.71,790.22 849.36,790.79 848.15,796.13 801.64,795.97 780.77,796.48 780.69,819.04 795.59,820.28 796.04,861.24"/>
    <poly id="304229765" type="building" color="255,230,230" fill="1" layer="-1.00" shape="823.39,886.27 822.82,877.96 801.36,876.70 801.33,885.60 823.39,886.27"/>
    <poly id="304229778" type="building" color="255,230,230" fill="1" layer="-1.00" shape="788.23,878.44 749.47,878.30 748.93,861.68 787.70,861.21 788.23,878.44"/>
    <poly id="304230141" type="building" color="255,230,230" fill="1" layer="-1.00" shape="689.32,822.17 688.97,841.87 700.04,842.08 699.59,867.07 689.36,866.89 688.98,887.92 630.09,886.87 630.19,880.85 616.51,871.31 607.55,874.84 599.22,870.06 599.45,858.03 595.21,857.96 595.36,849.55 600.77,849.65 601.30,820.58 613.14,820.79 689.32,822.17"/>
    <poly id="345754048" type="leisure" color="207,245,201" fill="1" layer="-2.00" shape="406.52,936.22 419.67,935.94 480.71,1000.97 469.44,1012.75 453.37,1022.91 437.31,1029.87 418.37,1034.27 400.09,1034.21 380.22,1028.72 363.89,1021.63 351.41,1012.65 343.10,1003.36 406.52,936.22"/>
    <poly id="345754048#1" type="sport" color="79,230,125" fill="1" layer="-2.00" shape="406.52,936.22 419.67,935.94 480.71,1000.97 469.44,1012.75 453.37,1022.91 437.31,1029.87 418.37,1034.27 400.09,1034.21 380.22,1028.72 363.89,1021.63 351.41,1012.65 343.10,1003.36 406.52,936.22"/>
    <poly id="345754049" type="leisure" color="207,245,201" fill="1" layer="-2.00" shape="1819.72,1246.90 1853.01,1247.08 1853.20,1209.79 1819.91,1209.62 1819.72,1246.90"/>
    <poly id="345754049#1" type="sport" color="79,230,125" fill="1" layer="-2.00" shape="1819.72,1246.90 1853.01,1247.08 1853.20,1209.79 1819.91,1209.62 1819.72,1246.90"/>
    <poly id="345754050" type="leisure" color="207,245,201" fill="1" layer="-2.00" shape="1819.91,1209.62 1853.20,1209.79 1853.39,1173.52 1820.10,1173.34 1819.91,1209.62"/>
    <poly id="345754050#1" type="sport" color="79,230,125" fill="1" layer="-2.00" shape="1819.91,1209.62 1853.20,1209.79 1853.39,1173.52 1820.10,1173.34 1819.91,1209.62"/>
    <poly id="345754052" type="amenity" color="237,199,199" fill="1" layer="-1.00" shape="2002.76,429.73 2018.07,728.58 1896.21,743.78 1899.63,882.64 1858.33,896.19 1860.60,1347.50 1592.44,1349.47 1592.16,1701.46 1493.38,1690.32 1385.67,1674.61 1210.68,1642.71 1172.26,1621.49 1155.70,1588.87 1156.57,1524.38 1151.46,1337.28 1148.71,754.89 1152.73,708.28 1094.68,710.96 879.37,709.88 880.82,490.24 1137.14,492.38 1126.63,17.21 884.00,36.17 728.23,1.77 841.67,-148.55 1120.15,-158.42 1120.93,-185.90 1123.77,-264.44 1147.14,-338.45 1627.09,-175.80 1969.26,-59.60 1956.52,92.99 2101.35,94.50 2095.39,183.55 2084.30,345.49 2095.82,419.85 2002.76,429.73"/>
    <poly id="406366667" type="building" color="255,230,230" fill="1" layer="-1.00" shape="1623.48,1217.22 1591.91,1189.00 1591.74,1166.02 1588.81,1162.34 1590.05,1157.95 1593.75,1155.51 1597.91,1156.26 1599.63,1157.74 1607.37,1151.03 1609.84,1153.25 1604.04,1159.46 1643.94,1195.54 1623.48,1217.22"/>
    <poly id="406366720" type="building" color="255,230,230" fill="1" layer="-1.00" shape="1460.84,656.66 1443.35,657.16 1434.28,668.36 1423.59,661.58 1434.92,647.86 1425.93,639.12 1434.72,624.55 1437.89,607.15 1429.44,603.75 1431.45,592.81 1440.47,593.69 1444.75,581.63 1437.70,580.48 1434.90,576.53 1433.79,570.35 1438.87,569.53 1427.51,511.64 1457.41,512.87 1457.35,530.28 1465.51,535.92 1460.68,546.02 1458.10,556.40 1458.07,566.50 1461.40,578.32 1465.32,588.72 1458.54,592.07 1460.84,656.66"/>
    <poly id="413730429" type="building" color="255,230,230" fill="1" layer="-1.00" shape="1473.79,820.41 1455.58,815.28 1454.70,818.39 1447.95,816.49 1443.86,830.90 1440.14,829.86 1432.44,857.00 1487.88,872.59 1488.82,869.28 1496.00,871.30 1521.14,875.52 1524.03,860.62 1527.71,860.51 1527.83,852.87 1542.71,853.10 1542.67,855.75 1544.22,865.17 1550.03,865.27 1550.12,859.58 1568.26,859.87 1568.61,837.36 1545.69,837.00 1545.64,840.16 1542.84,840.12 1542.82,842.04 1528.00,841.81 1528.03,840.10 1525.69,840.22 1513.83,825.38 1507.74,829.95 1478.94,816.28 1477.08,820.12 1474.26,819.38 1473.79,820.41"/>
    <poly id="413730430" type="amenity" color="237,199,199" fill="1" layer="-1.00" shape="1636.24,669.99 1631.27,670.00 1631.28,671.09 1613.77,671.15 1613.76,666.05 1598.17,666.09 1598.18,670.21 1588.51,670.25 1588.53,675.60 1593.34,675.59 1593.37,683.17 1594.22,683.17 1594.22,686.41 1589.58,686.43 1589.59,688.59 1576.73,688.63 1576.76,695.83 1589.21,695.79 1589.20,692.70 1592.11,692.69 1592.10,689.36 1594.24,689.34 1594.25,692.26 1631.60,692.13 1631.57,686.00 1634.80,685.99 1634.80,682.93 1636.29,682.93 1636.24,669.99"/>
    <poly id="413730430#1" type="building" color="255,230,230" fill="1" layer="-1.00" shape="1636.24,669.99 1631.27,670.00 1631.28,671.09 1613.77,671.15 1613.76,666.05 1598.17,666.09 1598.18,670.21 1588.51,670.25 1588.53,675.60 1593.34,675.59 1593.37,683.17 1594.22,683.17 1594.22,686.41 1589.58,686.43 1589.59,688.59 1576.73,688.63 1576.76,695.83 1589.21,695.79 1589.20,692.70 1592.11,692.69 1592.10,689.36 1594.24,689.34 1594.25,692.26 1631.60,692.13 1631.57,686.00 1634.80,685.99 1634.80,682.93 1636.29,682.93 1636.24,669.99"/>
    <poly id="413730431" type="building" color="255,230,230" fill="1" layer="-1.00" shape="1655.85,662.13 1656.62,623.94 1652.61,623.86 1653.55,576.69 1611.29,575.84 1611.51,565.19 1602.42,565.01 1602.30,571.11 1560.36,570.27 1559.74,601.28 1555.96,601.21 1555.14,641.67 1556.36,641.70 1556.29,644.96 1569.55,645.23 1569.62,641.97 1570.74,641.98 1571.56,601.53 1576.08,601.63 1576.38,586.52 1607.74,587.16 1607.65,591.45 1636.30,592.02 1635.72,620.96 1642.14,621.09 1642.09,623.87 1640.89,623.86 1640.13,661.82 1641.50,661.84 1641.44,664.77 1654.52,665.03 1654.57,662.10 1655.85,662.13"/>
    <poly id="413730440" type="building" color="255,230,230" fill="1" layer="-1.00" shape="1369.02,696.31 1366.96,693.71 1369.67,692.01 1367.96,689.13 1365.27,691.04 1362.23,693.13 1359.87,695.06 1357.16,697.61 1354.84,700.19 1352.55,703.18 1350.86,705.79 1349.16,708.89 1347.78,711.96 1346.44,715.15 1349.32,716.25 1350.56,713.51 1353.65,714.91 1345.24,725.07 1337.37,718.61 1328.65,729.16 1331.52,731.52 1329.66,733.78 1399.12,790.69 1400.22,789.35 1402.94,791.59 1412.98,779.46 1408.24,775.58 1413.12,769.68 1409.40,766.64 1406.36,770.32 1374.42,744.17 1373.69,745.05 1368.80,741.05 1396.61,707.41 1410.03,718.41 1411.94,716.11 1414.53,718.23 1423.48,707.39 1420.89,705.28 1423.28,702.39 1382.93,669.36 1381.18,671.48 1378.65,669.41 1369.34,680.66 1376.87,686.82 1369.02,696.31"/>
    <poly id="413730441" type="building" color="255,230,230" fill="1" layer="-1.00" shape="1861.83,770.29 1797.81,771.27 1797.60,757.56 1794.17,757.62 1794.06,750.34 1793.45,750.35 1793.34,743.14 1793.81,743.13 1794.01,734.37 1793.89,726.75 1792.75,726.77 1792.76,727.13 1791.02,727.15 1791.03,727.72 1790.31,727.73 1790.30,726.84 1784.95,726.92 1785.07,734.55 1766.17,734.85 1766.65,765.86 1759.75,765.96 1760.03,784.20 1760.70,784.19 1760.74,786.23 1760.07,786.24 1760.11,789.44 1756.26,789.50 1756.39,797.50 1760.24,797.45 1760.29,800.70 1760.96,800.69 1760.99,802.43 1760.42,802.44 1760.71,820.89 1761.77,820.88 1761.76,819.94 1764.40,819.90 1764.41,820.81 1768.82,820.75 1768.81,819.75 1786.55,819.48 1786.57,820.51 1791.99,820.43 1791.97,819.50 1794.31,819.46 1794.32,820.26 1795.31,820.25 1795.23,815.12 1862.51,814.09 1861.83,770.29"/>
    <poly id="413730441#1" type="leisure" color="207,245,201" fill="1" layer="-2.00" shape="1861.83,770.29 1797.81,771.27 1797.60,757.56 1794.17,757.62 1794.06,750.34 1793.45,750.35 1793.34,743.14 1793.81,743.13 1794.01,734.37 1793.89,726.75 1792.75,726.77 1792.76,727.13 1791.02,727.15 1791.03,727.72 1790.31,727.73 1790.30,726.84 1784.95,726.92 1785.07,734.55 1766.17,734.85 1766.65,765.86 1759.75,765.96 1760.03,784.20 1760.70,784.19 1760.74,786.23 1760.07,786.24 1760.11,789.44 1756.26,789.50 1756.39,797.50 1760.24,797.45 1760.29,800.70 1760.96,800.69 1760.99,802.43 1760.42,802.44 1760.71,820.89 1761.77,820.88 1761.76,819.94 1764.40,819.90 1764.41,820.81 1768.82,820.75 1768.81,819.75 1786.55,819.48 1786.57,820.51 1791.99,820.43 1791.97,819.50 1794.31,819.46 1794.32,820.26 1795.31,820.25 1795.23,815.12 1862.51,814.09 1861.83,770.29"/>
    <poly id="413730442" type="building" color="255,230,230" fill="1" layer="-1.00" shape="1931.24,791.21 1931.52,804.74 1935.24,804.67 1935.30,807.68 1923.97,807.91 1924.53,834.35 1938.71,834.06 1938.17,808.48 1964.82,807.94 1964.77,805.49 1979.84,805.18 1979.56,791.57 1964.11,791.89 1963.95,784.08 1961.12,784.14 1961.26,790.59 1931.24,791.21"/>
    <poly id="413730445" type="building" color="255,230,230" fill="1" layer="-1.00" shape="1886.37,636.43 1876.72,655.59 1891.90,663.17 1901.54,644.01 1886.37,636.43"/>
    <poly id="413730449" type="building" color="255,230,230" fill="1" layer="-1.00" shape="1648.34,688.38 1635.88,688.34 1635.85,695.67 1648.31,695.71 1648.34,688.38"/>
    <poly id="413730451" type="building" color="255,230,230" fill="1" layer="-1.00" shape="2020.20,739.47 2020.71,768.81 2044.62,768.41 2044.39,755.22 2033.51,755.41 2033.23,739.25 2020.20,739.47"/>
    <poly id="413730453" type="building" color="255,230,230" fill="1" layer="-1.00" shape="1843.84,681.62 1865.95,681.34 1865.74,666.30 1860.97,666.36 1860.94,663.83 1848.40,664.00 1848.44,666.53 1843.64,666.59 1843.84,681.62"/>
    <poly id="413730455" type="building" color="255,230,230" fill="1" layer="-1.00" shape="1890.20,595.01 1877.14,602.81 1879.27,606.34 1876.84,607.79 1883.06,618.09 1885.48,616.65 1888.38,621.44 1901.43,613.63 1890.20,595.01"/>
    <poly id="413731367" type="building" color="255,230,230" fill="1" layer="-1.00" shape="1339.94,969.88 1340.20,987.64 1322.87,987.90 1323.15,1006.37 1358.10,1005.85 1357.83,987.83 1375.72,987.56 1375.45,969.93 1408.49,969.44 1408.22,951.63 1392.46,951.86 1392.20,934.24 1374.68,934.49 1374.94,951.84 1357.30,952.09 1352.95,953.15 1348.96,955.15 1345.50,957.98 1342.76,961.49 1340.88,965.53 1339.94,969.88"/>
    <poly id="413732093" type="building" color="255,230,230" fill="1" layer="-1.00" shape="1377.15,1155.80 1326.81,1156.52 1326.80,1155.26 1334.59,1155.14 1334.53,1150.96 1316.00,1151.23 1316.06,1155.43 1322.99,1155.33 1323.01,1156.58 1288.87,1157.07 1289.08,1171.15 1318.90,1170.71 1319.56,1215.47 1321.84,1215.44 1321.91,1219.92 1331.64,1219.78 1331.58,1215.30 1333.18,1215.27 1332.53,1170.51 1377.36,1169.86 1377.15,1155.80"/>
    <poly id="413732094" type="building" color="255,230,230" fill="1" layer="-1.00" shape="1344.69,1125.72 1379.57,1125.36 1379.46,1115.33 1382.22,1115.31 1382.16,1109.32 1379.40,1109.35 1379.35,1104.70 1380.78,1104.68 1380.74,1100.90 1370.44,1101.01 1370.40,1097.09 1380.71,1096.99 1380.56,1083.31 1382.36,1083.30 1382.42,1089.26 1385.68,1089.23 1385.56,1077.93 1382.29,1077.96 1382.31,1079.20 1380.52,1079.22 1380.38,1066.21 1382.30,1066.19 1382.30,1066.78 1389.70,1066.71 1389.64,1060.98 1382.49,1061.05 1382.50,1061.73 1380.34,1061.74 1380.18,1046.96 1363.15,1047.14 1363.11,1043.14 1352.55,1043.25 1352.59,1047.25 1342.71,1047.36 1342.85,1060.69 1342.23,1060.70 1339.89,1060.69 1339.77,1050.95 1333.07,1051.07 1333.13,1054.26 1316.56,1054.56 1317.06,1074.67 1330.27,1074.35 1330.50,1078.48 1328.35,1078.56 1328.75,1084.80 1331.09,1084.78 1331.09,1085.52 1331.08,1086.87 1331.32,1089.80 1332.22,1094.21 1333.13,1096.89 1334.29,1099.28 1335.64,1101.43 1337.35,1104.01 1339.36,1105.96 1340.83,1107.43 1341.88,1107.38 1341.71,1102.01 1359.96,1101.82 1359.99,1105.42 1344.48,1105.58 1344.52,1109.47 1341.75,1109.50 1341.82,1115.49 1344.58,1115.45 1344.69,1125.72"/>
    <poly id="416214493" type="amenity" color="237,199,199" fill="1" layer="-1.00" shape="889.59,653.99 890.82,604.27 914.25,605.21 916.29,603.13 921.20,603.83 920.22,632.70 916.10,632.70 916.02,638.38 905.46,638.10 903.75,640.48 900.96,642.21 897.34,642.09 891.19,654.67 889.59,653.99"/>
    <poly id="416214493#1" type="building" color="255,230,230" fill="1" layer="-1.00" shape="889.59,653.99 890.82,604.27 914.25,605.21 916.29,603.13 921.20,603.83 920.22,632.70 916.10,632.70 916.02,638.38 905.46,638.10 903.75,640.48 900.96,642.21 897.34,642.09 891.19,654.67 889.59,653.99"/>
    <poly id="54149351" type="parking" color="184,184,179" fill="1" layer="-1.00" shape="1532.91,1517.43 1541.75,1516.48 1587.14,1458.96 1584.21,1345.78 1501.05,1360.88 1436.94,1437.88 1532.91,1517.43"/>
    <poly id="54149352" type="parking" color="184,184,179" fill="1" layer="-1.00" shape="1349.73,1376.96 1423.71,1291.17 1483.44,1341.25 1411.42,1429.00 1349.73,1376.96"/>
    <poly id="54149353" type="amenity" color="237,199,199" fill="1" layer="-1.00" shape="1592.16,1701.46 1861.28,1701.45 1860.60,1347.50 1592.44,1349.47 1592.16,1701.46"/>
    <poly id="54149354" type="building" color="255,230,230" fill="1" layer="-1.00" shape="1645.85,1543.81 1698.81,1514.21 1673.50,1469.33 1708.16,1449.96 1723.92,1477.89 1764.66,1455.13 1785.93,1492.87 1657.56,1564.58 1645.85,1543.81"/>
    <poly id="57390937" type="commercial" color="209,209,204" fill="1" layer="-3.00" shape="1299.70,1798.70 1346.40,1924.01 1361.39,2127.43 1536.22,2126.10 1546.57,2526.99 2739.86,2541.13 2742.21,2148.10 2282.61,2134.67 1669.78,2128.53 1658.06,2110.89 1863.69,1740.10 1296.02,1730.24 1205.63,1737.74 1205.40,1804.23 1299.70,1798.70"/>
    <poly id="57390940" type="residential" color="235,235,227" fill="1" layer="-3.00" shape="2282.61,2134.67 1669.78,2128.53 1658.06,2110.89 1863.69,1740.10 1985.48,1740.54 1983.00,1881.33 2269.79,1882.38 2282.61,2134.67"/>
    <poly id="59580409" type="parking" color="184,184,179" fill="1" layer="-1.00" shape="884.17,668.59 799.69,670.24 799.34,490.32 883.80,491.59 884.17,668.59"/>
    <poly id="70930947" type="parking" color="184,184,179" fill="1" layer="-1.00" shape="1902.87,746.31 1984.41,744.66 1985.75,781.33 1904.71,783.97 1902.87,746.31"/>
    <poly id="70930952" type="parking" color="184,184,179" fill="1" layer="-1.00" shape="1745.78,860.91 1720.62,861.07 1711.21,851.87 1710.00,783.73 1709.91,778.11 1708.66,707.76 1718.56,698.35 1814.02,696.65 1814.18,705.59 1814.82,710.17 1751.24,711.05 1754.01,852.20 1745.78,860.91"/>
    <poly id="77730368" type="residential" color="235,235,227" fill="1" layer="-3.00" shape="3456.84,1582.66 3152.39,1575.64 3150.28,1612.78 2733.82,1615.14 2734.01,1564.30 2620.08,1561.92 2619.97,1591.25 2561.04,1591.03 2560.89,1630.15 2503.92,1631.89 2490.10,1653.35 2487.90,1715.92 2124.49,1712.62 2126.78,1626.59 2089.50,1612.77 2123.15,1544.45 2066.29,1514.91 1867.86,1520.05 1858.33,896.19 1899.63,882.64 1896.21,743.78 2018.07,728.58 2002.76,429.73 2095.82,419.85 2084.30,345.49 2095.39,183.55 2126.52,81.62 2440.84,90.59 2533.07,124.19 2530.82,200.45 2556.31,212.28 2567.58,353.14 2546.62,355.04 2543.20,406.13 2555.99,832.25 2514.72,834.05 2514.56,879.03 2471.33,880.83 2470.97,978.60 2647.78,977.30 2645.71,1006.63 2726.27,1003.02 2721.86,883.66 2712.69,175.65 3109.07,308.17 3109.07,326.11 3108.96,620.18 3108.87,885.11 3041.04,884.85 3041.18,1029.46 3041.43,1305.35 3090.55,1303.59 3093.01,1170.61 3203.09,1151.47 3256.10,1161.45 3355.75,1302.63 3685.76,1309.75 3701.44,1319.58 3713.32,1292.26 3719.84,1129.97 3694.62,1047.73 3714.52,979.37 4372.11,1116.84 4594.02,1139.22 5006.45,1168.22 5078.80,1252.60 5102.18,1301.58 5092.16,1350.43 5097.80,1414.98 5152.26,1550.13 5165.67,1636.23 5157.52,1710.51 5143.63,1745.65 5107.30,1792.82 4915.24,1760.29 4847.37,1894.49 4926.77,1932.44 4977.55,1838.95 5046.71,1877.64 4922.36,2063.51 4299.05,1718.86 4069.24,1712.11 3990.87,1659.01 3943.44,1731.17 3458.27,1723.45 3456.84,1582.66"/>
    <poly id="87444717" type="building" color="255,230,230" fill="1" layer="-1.00" shape="1436.02,1515.99 1463.13,1538.25 1471.41,1528.25 1427.95,1492.57 1381.36,1548.80 1425.13,1584.74 1434.78,1573.10 1407.36,1550.59 1436.02,1515.99"/>
    <poly id="87446424" type="building" color="255,230,230" fill="1" layer="-1.00" shape="1439.21,1579.07 1431.13,1587.91 1482.51,1631.00 1491.04,1621.33 1470.69,1605.42 1501.06,1569.32 1514.55,1580.14 1520.54,1584.94 1528.72,1575.43 1522.71,1570.42 1478.22,1533.33 1469.62,1542.50 1489.53,1560.29 1460.01,1595.62 1439.21,1579.07"/>
    <poly id="87447179" type="building" color="255,230,230" fill="1" layer="-1.00" shape="1330.96,1436.41 1341.33,1423.53 1374.63,1451.91 1332.07,1503.98 1297.29,1475.73 1307.28,1463.77 1327.93,1479.57 1333.45,1472.72 1315.41,1456.72 1326.60,1444.24 1344.61,1460.27 1349.27,1452.38 1330.96,1436.41"/>
    <poly id="87450366" type="building" color="255,230,230" fill="1" layer="-1.00" shape="1400.04,1221.20 1401.99,1233.13 1396.26,1240.33 1397.96,1252.22 1400.97,1273.40 1388.37,1275.49 1386.21,1274.15 1367.56,1301.36 1363.50,1298.85 1353.91,1311.18 1308.52,1283.14 1356.42,1209.73 1376.77,1224.20 1385.86,1210.78 1400.04,1221.20"/>
    <poly id="87450369" type="building" color="255,230,230" fill="1" layer="-1.00" shape="1551.14,1285.18 1578.39,1283.83 1578.30,1279.25 1586.37,1279.09 1593.85,1278.95 1594.18,1290.69 1621.32,1290.19 1620.86,1257.81 1592.66,1258.41 1593.30,1267.57 1585.80,1267.56 1577.51,1267.67 1577.14,1260.69 1550.09,1261.78 1551.14,1285.18"/>
    <poly id="87450644" type="amenity" color="237,199,199" fill="1" layer="-1.00" shape="1476.15,1202.21 1504.09,1200.87 1503.39,1159.87 1493.49,1159.81 1493.64,1138.75 1505.03,1139.24 1505.52,1124.27 1498.52,1123.95 1498.17,1107.20 1508.46,1107.37 1508.68,1086.90 1495.47,1086.93 1495.03,1069.87 1474.42,1069.92 1474.71,1078.08 1461.96,1078.32 1463.09,1107.67 1471.70,1107.98 1472.19,1124.03 1465.57,1124.55 1465.93,1139.42 1480.14,1139.13 1479.99,1160.61 1475.66,1160.93 1476.15,1202.21"/>
    <poly id="87450644#1" type="building" color="255,230,230" fill="1" layer="-1.00" shape="1476.15,1202.21 1504.09,1200.87 1503.39,1159.87 1493.49,1159.81 1493.64,1138.75 1505.03,1139.24 1505.52,1124.27 1498.52,1123.95 1498.17,1107.20 1508.46,1107.37 1508.68,1086.90 1495.47,1086.93 1495.03,1069.87 1474.42,1069.92 1474.71,1078.08 1461.96,1078.32 1463.09,1107.67 1471.70,1107.98 1472.19,1124.03 1465.57,1124.55 1465.93,1139.42 1480.14,1139.13 1479.99,1160.61 1475.66,1160.93 1476.15,1202.21"/>
    <poly id="87450678" type="building" color="255,230,230" fill="1" layer="-1.00" shape="1605.86,1112.44 1645.20,1148.22 1636.90,1156.44 1614.51,1157.46 1609.84,1153.25 1607.37,1151.03 1597.78,1142.39 1596.80,1121.72 1605.86,1112.44"/>
    <poly id="87451041" type="tourism" color="207,245,201" fill="1" layer="-2.00" shape="1199.46,1253.69 1238.19,1252.92 1240.27,1281.56 1262.99,1279.70 1269.44,1284.94 1218.60,1341.62 1219.69,1370.49 1203.88,1371.25 1199.46,1253.69"/>
    <poly id="87451860" type="building" color="255,230,230" fill="1" layer="-1.00" shape="1747.28,1291.82 1746.78,1327.47 1826.02,1328.58 1826.39,1302.51 1836.90,1302.66 1837.07,1291.04 1826.07,1290.87 1826.24,1279.00 1795.07,1278.56 1794.87,1292.48 1747.28,1291.82"/>
    <poly id="87451860#1" type="leisure" color="207,245,201" fill="1" layer="-2.00" shape="1747.28,1291.82 1746.78,1327.47 1826.02,1328.58 1826.39,1302.51 1836.90,1302.66 1837.07,1291.04 1826.07,1290.87 1826.24,1279.00 1795.07,1278.56 1794.87,1292.48 1747.28,1291.82"/>
    <poly id="87452207" type="leisure" color="207,245,201" fill="1" layer="-2.00" shape="1820.10,1173.34 1853.39,1173.52 1853.58,1137.74 1820.29,1137.57 1820.10,1173.34"/>
    <poly id="87452207#1" type="sport" color="79,230,125" fill="1" layer="-2.00" shape="1820.10,1173.34 1853.39,1173.52 1853.58,1137.74 1820.29,1137.57 1820.10,1173.34"/>
    <poly id="87453008" type="building" color="255,230,230" fill="1" layer="-1.00" shape="1634.93,692.86 1588.37,692.16 1589.78,696.82 1580.89,696.97 1580.47,788.53 1580.47,790.16 1639.67,792.77 1639.76,785.58 1639.85,778.77 1640.66,716.07 1640.52,706.00 1640.42,698.88 1640.38,695.99 1634.94,695.96 1634.93,692.86"/>
    <poly id="87453184" type="building" color="255,230,230" fill="1" layer="-1.00" shape="1784.07,681.94 1783.91,666.82 1806.05,666.16 1806.38,681.69 1784.07,681.94"/>
    <poly id="87456880" type="landuse" color="194,194,130" fill="1" layer="-3.00" shape="1228.09,581.09 1222.59,572.63 1217.52,561.85 1213.66,543.75 1211.42,535.93 1208.49,529.31 1204.10,525.15 1198.14,520.97 1187.67,500.39 1175.95,497.84 1166.34,525.13 1167.53,534.97 1170.26,544.40 1173.85,551.67 1180.26,560.75 1184.84,569.62 1186.78,576.73 1187.11,586.20 1185.06,596.22 1182.27,601.95 1177.08,611.16 1174.22,620.08 1172.78,627.77 1172.45,636.63 1174.19,647.75 1177.17,656.50 1179.91,661.84 1183.51,667.40 1190.11,674.65 1193.98,677.83 1199.42,681.64 1207.64,685.59 1217.20,688.43 1224.37,691.15 1230.62,695.51 1235.45,700.66 1237.83,705.92 1238.12,710.99 1241.87,709.60 1252.31,706.83 1265.26,706.02 1265.35,701.50 1264.26,697.21 1260.13,685.95 1257.35,674.57 1257.86,665.28 1259.86,656.86 1264.32,645.88 1266.88,631.95 1264.78,621.43 1260.03,610.41 1254.29,601.60 1245.89,594.71 1237.26,589.18 1228.09,581.09"/>
    <poly id="87457193" type="building" color="255,230,230" fill="1" layer="-1.00" shape="1019.36,651.18 1055.53,650.35 1054.51,603.32 1039.13,603.68 1039.01,592.79 1051.53,592.29 1050.99,545.65 967.47,548.54 968.10,576.73 1013.59,575.58 1013.93,594.00 1031.40,593.13 1031.36,604.01 1017.64,604.61 1019.36,651.18"/>
    <poly id="87458689" type="leisure" color="207,245,201" fill="1" layer="-2.00" shape="1756.43,946.98 1831.12,947.37 1830.66,1037.34 1830.20,1072.60 1749.33,1071.56 1750.35,992.56 1750.83,946.92 1756.43,946.98"/>
    <poly id="87458689#1" type="sport" color="79,230,125" fill="1" layer="-2.00" shape="1756.43,946.98 1831.12,947.37 1830.66,1037.34 1830.20,1072.60 1749.33,1071.56 1750.35,992.56 1750.83,946.92 1756.43,946.98"/>
    <poi id="1016907753" type="amenity" color="237,199,199" layer="4.00" x="1601.47" y="684.43"/>
    <poi id="1016907754" type="amenity" color="237,199,199" layer="4.00" x="1614.35" y="685.82"/>
    <poi id="1016907759" type="shop" color="237,199,255" layer="4.00" x="1625.45" y="684.73"/>
    <poi id="3087605425" type="building" color="255,230,230" layer="4.00" x="796.04" y="861.24"/>
    <poi id="358930392" type="amenity" color="237,199,199" layer="4.00" x="1949.35" y="796.36"/>
    <poi id="358930887" type="amenity" color="237,199,199" layer="4.00" x="1717.23" y="1515.67"/>
    <poi id="358966094" type="amenity" color="237,199,199" layer="4.00" x="2025.16" y="750.67"/>
    <poi id="4084420994" type="amenity" color="237,199,199" layer="4.00" x="1385.52" y="1231.22"/>
    <poi id="4084420995" type="amenity" color="237,199,199" layer="4.00" x="1392.50" y="1266.93"/>
    <poi id="4084459143" type="amenity" color="237,199,199" layer="4.00" x="1570.37" y="703.59"/>
    <poi id="4084459147" type="amenity" color="237,199,199" layer="4.00" x="1569.69" y="793.88"/>
    <poi id="4084459148" type="amenity" color="237,199,199" layer="4.00" x="1523.91" y="821.69"/>
    <poi id="4084459149" type="amenity" color="237,199,199" layer="4.00" x="1516.38" y="819.80"/>
    <poi id="4084459150" type="amenity" color="237,199,199" layer="4.00" x="1531.31" y="833.11"/>
    <poi id="4084459151" type="amenity" color="237,199,199" layer="4.00" x="1539.29" y="865.00"/>
    <poi id="4084459152" type="amenity" color="237,199,199" layer="4.00" x="1531.88" y="882.20"/>
    <poi id="4170345580" type="building" color="255,230,230" layer="4.00" x="889.59" y="653.99"/>
    <poi id="676009909" type="parking" color="184,184,179" layer="4.00" x="1615.17" y="759.43"/>
    <poi id="676010189" type="amenity" color="237,199,199" layer="4.00" x="1634.82" y="720.73"/>
    <poi id="676010578" type="amenity" color="237,199,199" layer="4.00" x="1372.83" y="1273.06"/>
    <poi id="676011909" type="amenity" color="237,199,199" layer="4.00" x="1883.39" y="1665.99"/>
    <poi id="676012143" type="amenity" color="237,199,199" layer="4.00" x="1781.84" y="1774.16"/>
    <poi id="676016918" type="amenity" color="237,199,199" layer="4.00" x="1940.36" y="1667.18"/>
    <poi id="676017052" type="amenity" color="237,199,199" layer="4.00" x="1978.65" y="1671.23"/>
    <poi id="676017908" type="amenity" color="237,199,199" layer="4.00" x="2053.30" y="1561.99"/>
    <poi id="703872618" type="parking" color="184,184,179" layer="4.00" x="1523.50" y="1435.65"/>
    <poi id="703877080" type="parking" color="184,184,179" layer="4.00" x="1796.88" y="1458.33"/>
    <poi id="703877081" type="parking" color="184,184,179" layer="4.00" x="1781.18" y="1180.58"/>
    <poi id="703877083" type="parking" color="184,184,179" layer="4.00" x="1259.98" y="1159.41"/>
    <poi id="703877084" type="parking" color="184,184,179" layer="4.00" x="1185.05" y="1294.32"/>
    <poi id="703877270" type="parking" color="184,184,179" layer="4.00" x="1411.76" y="1344.50"/>
    <poi id="703877359" type="parking" color="184,184,179" layer="4.00" x="1316.34" y="1524.56"/>
    <poi id="703877403" type="parking" color="184,184,179" layer="4.00" x="1373.08" y="1590.28"/>
    <poi id="703877546" type="parking" color="184,184,179" layer="4.00" x="1568.18" y="1551.38"/>
    <poi id="703878365" type="parking" color="184,184,179" layer="4.00" x="1573.12" y="995.03"/>
    <poi id="703882257" type="parking" color="184,184,179" layer="4.00" x="1923.62" y="634.98"/>
    <poi id="703985026" type="amenity" color="237,199,199" layer="4.00" x="2386.51" y="1748.03"/>
    <poi id="703985697" type="amenity" color="237,199,199" layer="4.00" x="2352.12" y="1751.81"/>
    <poi id="703985698" type="amenity" color="237,199,199" layer="4.00" x="2313.12" y="1754.60"/>
    <poi id="703985700" type="amenity" color="237,199,199" layer="4.00" x="2095.12" y="1821.27"/>
    <poi id="703985942" type="shop" color="237,199,255" layer="4.00" x="2023.99" y="1569.72"/>
    <poi id="703990266" type="shop" color="237,199,255" layer="4.00" x="1941.51" y="1563.07"/>
    <poi id="703992391" type="parking" color="184,184,179" layer="4.00" x="1244.08" y="1001.76"/>
    <poi id="704025000" type="amenity" color="237,199,199" layer="4.00" x="2081.63" y="1772.08"/>
    <poi id="704025000#1" type="shop" color="237,199,255" layer="4.00" x="2081.63" y="1772.08"/>
    <poi id="704025007" type="amenity" color="237,199,199" layer="4.00" x="2154.82" y="1766.97"/>
    <poi id="704025007#1" type="shop" color="237,199,255" layer="4.00" x="2154.82" y="1766.97"/>
    <poi id="704025052" type="shop" color="237,199,255" layer="4.00" x="2078.04" y="1677.23"/>
    <poi id="712716473" type="amenity" color="237,199,199" layer="4.00" x="2141.30" y="936.91"/>
</additional>
